Inverting /tigress/lsawade/CMTS/cmt_to_be_run/C010304J

******** PACKAGE INFO ********************************
GCMT3D Location:_________________ /home/lsawade/GCMT3D
Workflow Directory:______________ /home/lsawade/GCMT3D/workflow
Slurmjob Directory:______________ /home/lsawade/GCMT3D/workflow/slurmwf
Bin directory (important):_______ /home/lsawade/GCMT3D/workflow/bins


******** DATABASE INFO *******************************
Database directory:______________ /tigress/lsawade/database


******** EARTHQUAKE INFO *****************************
CMTSOLUTION:_____________________ /tigress/lsawade/CMTS/cmt_to_be_run/C010304J
Earthquake ID:___________________ 010304J
Earthquake Directory:____________ /tigress/lsawade/database/C010304J
Earthquake File in Database:_____ /tigress/lsawade/database/C010304J/C010304J.cmt
Inversion Logging Directory:_____ /tigress/lsawade/database/C010304J/logs
Simulation Directory:____________ /tigress/lsawade/database/C010304J/CMT_SIMs
Process Path Directory:__________ /tigress/lsawade/database/C010304J/seismograms/process_paths
Window Path Directory:___________ /tigress/lsawade/database/C010304J/window_data/window_paths


Creating earthquake entry in database /scratch/gpfs/lsawade/database ... 
Creating directory /scratch/gpfs/lsawade/database/C010304J.
Copying file /tigress/lsawade/CMTS/cmt_to_be_run/C010304J file to /scratch/gpfs/lsawade/database/C010304J/C010304J.cmt.
Writing earthquake /tigress/lsawade/CMTS/cmt_to_be_run/C010304J file to /scratch/gpfs/lsawade/database/C010304J/C010304J.xml.
Creating directory /scratch/gpfs/lsawade/database/C010304J/station_data.
Creating directory /scratch/gpfs/lsawade/database/C010304J/logs.
Creating directory /scratch/gpfs/lsawade/database/C010304J/window_data.
Creating directory /scratch/gpfs/lsawade/database/C010304J/window_data/window_paths.
Creating directory /scratch/gpfs/lsawade/database/C010304J/seismograms.
Creating directory /scratch/gpfs/lsawade/database/C010304J/seismograms/syn.
Creating directory /scratch/gpfs/lsawade/database/C010304J/seismograms/obs.
Writing the YAML path file to /scratch/gpfs/lsawade/database/C010304J/seismograms/obs/observed.yml
Writing path file /scratch/gpfs/lsawade/database/C010304J/seismograms/obs/observed.yml.
Creating directory /scratch/gpfs/lsawade/database/C010304J/seismograms/process_paths.
Creating directory /scratch/gpfs/lsawade/database/C010304J/seismograms/processed_seismograms.
Creating directory /scratch/gpfs/lsawade/database/C010304J/inversion.
Creating directory /scratch/gpfs/lsawade/database/C010304J/inversion/inversion_dicts.
Creating directory /scratch/gpfs/lsawade/database/C010304J/inversion/inversion_output.
Creating directory /scratch/gpfs/lsawade/database/C010304J/inversion/inversion_output/new_synt.
Creating directory /scratch/gpfs/lsawade/database/C010304J/inversion/inversion_output/waveform_plots.
Creating directory /scratch/gpfs/lsawade/database/C010304J/CMT_SIMs.
Creating directory /scratch/gpfs/lsawade/database/C010304J/CMT_SIMs/CMT.
Creating directory /scratch/gpfs/lsawade/database/C010304J/CMT_SIMs/CMT/DATA.
Copying file /scratch/gpfs/lsawade/specfem3d_globe/DATA/STATIONS file to /scratch/gpfs/lsawade/database/C010304J/CMT_SIMs/CMT/DATA/STATIONS.
Copying file /scratch/gpfs/lsawade/specfem3d_globe/DATA/Par_file file to /scratch/gpfs/lsawade/database/C010304J/CMT_SIMs/CMT/DATA/Par_file.
Copying file /scratch/gpfs/lsawade/specfem3d_globe/DATA/CMTSOLUTION file to /scratch/gpfs/lsawade/database/C010304J/CMT_SIMs/CMT/DATA/CMTSOLUTION.
Copying directory /scratch/gpfs/lsawade/specfem3d_globe/OUTPUT_FILES file to /scratch/gpfs/lsawade/database/C010304J/CMT_SIMs/CMT/OUTPUT_FILES
Writing YAML path file from waveform dir /scratch/gpfs/lsawade/database/C010304J/CMT_SIMs/CMT/OUTPUT_FILES
Writing path file /scratch/gpfs/lsawade/database/C010304J/CMT_SIMs/CMT/CMT.yml.
Creating directory /scratch/gpfs/lsawade/database/C010304J/CMT_SIMs/CMT_rr.
Creating directory /scratch/gpfs/lsawade/database/C010304J/CMT_SIMs/CMT_rr/DATA.
Copying file /scratch/gpfs/lsawade/specfem3d_globe/DATA/STATIONS file to /scratch/gpfs/lsawade/database/C010304J/CMT_SIMs/CMT_rr/DATA/STATIONS.
Copying file /scratch/gpfs/lsawade/specfem3d_globe/DATA/Par_file file to /scratch/gpfs/lsawade/database/C010304J/CMT_SIMs/CMT_rr/DATA/Par_file.
Copying file /scratch/gpfs/lsawade/specfem3d_globe/DATA/CMTSOLUTION file to /scratch/gpfs/lsawade/database/C010304J/CMT_SIMs/CMT_rr/DATA/CMTSOLUTION.
Copying directory /scratch/gpfs/lsawade/specfem3d_globe/OUTPUT_FILES file to /scratch/gpfs/lsawade/database/C010304J/CMT_SIMs/CMT_rr/OUTPUT_FILES
Writing YAML path file from waveform dir /scratch/gpfs/lsawade/database/C010304J/CMT_SIMs/CMT_rr/OUTPUT_FILES
Writing path file /scratch/gpfs/lsawade/database/C010304J/CMT_SIMs/CMT_rr/CMT_rr.yml.
Creating directory /scratch/gpfs/lsawade/database/C010304J/CMT_SIMs/CMT_tt.
Creating directory /scratch/gpfs/lsawade/database/C010304J/CMT_SIMs/CMT_tt/DATA.
Copying file /scratch/gpfs/lsawade/specfem3d_globe/DATA/STATIONS file to /scratch/gpfs/lsawade/database/C010304J/CMT_SIMs/CMT_tt/DATA/STATIONS.
Copying file /scratch/gpfs/lsawade/specfem3d_globe/DATA/Par_file file to /scratch/gpfs/lsawade/database/C010304J/CMT_SIMs/CMT_tt/DATA/Par_file.
Copying file /scratch/gpfs/lsawade/specfem3d_globe/DATA/CMTSOLUTION file to /scratch/gpfs/lsawade/database/C010304J/CMT_SIMs/CMT_tt/DATA/CMTSOLUTION.
Copying directory /scratch/gpfs/lsawade/specfem3d_globe/OUTPUT_FILES file to /scratch/gpfs/lsawade/database/C010304J/CMT_SIMs/CMT_tt/OUTPUT_FILES
Writing YAML path file from waveform dir /scratch/gpfs/lsawade/database/C010304J/CMT_SIMs/CMT_tt/OUTPUT_FILES
Writing path file /scratch/gpfs/lsawade/database/C010304J/CMT_SIMs/CMT_tt/CMT_tt.yml.
Creating directory /scratch/gpfs/lsawade/database/C010304J/CMT_SIMs/CMT_pp.
Creating directory /scratch/gpfs/lsawade/database/C010304J/CMT_SIMs/CMT_pp/DATA.
Copying file /scratch/gpfs/lsawade/specfem3d_globe/DATA/STATIONS file to /scratch/gpfs/lsawade/database/C010304J/CMT_SIMs/CMT_pp/DATA/STATIONS.
Copying file /scratch/gpfs/lsawade/specfem3d_globe/DATA/Par_file file to /scratch/gpfs/lsawade/database/C010304J/CMT_SIMs/CMT_pp/DATA/Par_file.
Copying file /scratch/gpfs/lsawade/specfem3d_globe/DATA/CMTSOLUTION file to /scratch/gpfs/lsawade/database/C010304J/CMT_SIMs/CMT_pp/DATA/CMTSOLUTION.
Copying directory /scratch/gpfs/lsawade/specfem3d_globe/OUTPUT_FILES file to /scratch/gpfs/lsawade/database/C010304J/CMT_SIMs/CMT_pp/OUTPUT_FILES
Writing YAML path file from waveform dir /scratch/gpfs/lsawade/database/C010304J/CMT_SIMs/CMT_pp/OUTPUT_FILES
Writing path file /scratch/gpfs/lsawade/database/C010304J/CMT_SIMs/CMT_pp/CMT_pp.yml.
Creating directory /scratch/gpfs/lsawade/database/C010304J/CMT_SIMs/CMT_rt.
Creating directory /scratch/gpfs/lsawade/database/C010304J/CMT_SIMs/CMT_rt/DATA.
Copying file /scratch/gpfs/lsawade/specfem3d_globe/DATA/STATIONS file to /scratch/gpfs/lsawade/database/C010304J/CMT_SIMs/CMT_rt/DATA/STATIONS.
Copying file /scratch/gpfs/lsawade/specfem3d_globe/DATA/Par_file file to /scratch/gpfs/lsawade/database/C010304J/CMT_SIMs/CMT_rt/DATA/Par_file.
Copying file /scratch/gpfs/lsawade/specfem3d_globe/DATA/CMTSOLUTION file to /scratch/gpfs/lsawade/database/C010304J/CMT_SIMs/CMT_rt/DATA/CMTSOLUTION.
Copying directory /scratch/gpfs/lsawade/specfem3d_globe/OUTPUT_FILES file to /scratch/gpfs/lsawade/database/C010304J/CMT_SIMs/CMT_rt/OUTPUT_FILES
Writing YAML path file from waveform dir /scratch/gpfs/lsawade/database/C010304J/CMT_SIMs/CMT_rt/OUTPUT_FILES
Writing path file /scratch/gpfs/lsawade/database/C010304J/CMT_SIMs/CMT_rt/CMT_rt.yml.
Creating directory /scratch/gpfs/lsawade/database/C010304J/CMT_SIMs/CMT_rp.
Creating directory /scratch/gpfs/lsawade/database/C010304J/CMT_SIMs/CMT_rp/DATA.
Copying file /scratch/gpfs/lsawade/specfem3d_globe/DATA/STATIONS file to /scratch/gpfs/lsawade/database/C010304J/CMT_SIMs/CMT_rp/DATA/STATIONS.
Copying file /scratch/gpfs/lsawade/specfem3d_globe/DATA/Par_file file to /scratch/gpfs/lsawade/database/C010304J/CMT_SIMs/CMT_rp/DATA/Par_file.
Copying file /scratch/gpfs/lsawade/specfem3d_globe/DATA/CMTSOLUTION file to /scratch/gpfs/lsawade/database/C010304J/CMT_SIMs/CMT_rp/DATA/CMTSOLUTION.
Copying directory /scratch/gpfs/lsawade/specfem3d_globe/OUTPUT_FILES file to /scratch/gpfs/lsawade/database/C010304J/CMT_SIMs/CMT_rp/OUTPUT_FILES
Writing YAML path file from waveform dir /scratch/gpfs/lsawade/database/C010304J/CMT_SIMs/CMT_rp/OUTPUT_FILES
Writing path file /scratch/gpfs/lsawade/database/C010304J/CMT_SIMs/CMT_rp/CMT_rp.yml.
Creating directory /scratch/gpfs/lsawade/database/C010304J/CMT_SIMs/CMT_tp.
Creating directory /scratch/gpfs/lsawade/database/C010304J/CMT_SIMs/CMT_tp/DATA.
Copying file /scratch/gpfs/lsawade/specfem3d_globe/DATA/STATIONS file to /scratch/gpfs/lsawade/database/C010304J/CMT_SIMs/CMT_tp/DATA/STATIONS.
Copying file /scratch/gpfs/lsawade/specfem3d_globe/DATA/Par_file file to /scratch/gpfs/lsawade/database/C010304J/CMT_SIMs/CMT_tp/DATA/Par_file.
Copying file /scratch/gpfs/lsawade/specfem3d_globe/DATA/CMTSOLUTION file to /scratch/gpfs/lsawade/database/C010304J/CMT_SIMs/CMT_tp/DATA/CMTSOLUTION.
Copying directory /scratch/gpfs/lsawade/specfem3d_globe/OUTPUT_FILES file to /scratch/gpfs/lsawade/database/C010304J/CMT_SIMs/CMT_tp/OUTPUT_FILES
Writing YAML path file from waveform dir /scratch/gpfs/lsawade/database/C010304J/CMT_SIMs/CMT_tp/OUTPUT_FILES
Writing path file /scratch/gpfs/lsawade/database/C010304J/CMT_SIMs/CMT_tp/CMT_tp.yml.
Creating directory /scratch/gpfs/lsawade/database/C010304J/CMT_SIMs/CMT_depth.
Creating directory /scratch/gpfs/lsawade/database/C010304J/CMT_SIMs/CMT_depth/DATA.
Copying file /scratch/gpfs/lsawade/specfem3d_globe/DATA/STATIONS file to /scratch/gpfs/lsawade/database/C010304J/CMT_SIMs/CMT_depth/DATA/STATIONS.
Copying file /scratch/gpfs/lsawade/specfem3d_globe/DATA/Par_file file to /scratch/gpfs/lsawade/database/C010304J/CMT_SIMs/CMT_depth/DATA/Par_file.
Copying file /scratch/gpfs/lsawade/specfem3d_globe/DATA/CMTSOLUTION file to /scratch/gpfs/lsawade/database/C010304J/CMT_SIMs/CMT_depth/DATA/CMTSOLUTION.
Copying directory /scratch/gpfs/lsawade/specfem3d_globe/OUTPUT_FILES file to /scratch/gpfs/lsawade/database/C010304J/CMT_SIMs/CMT_depth/OUTPUT_FILES
Writing YAML path file from waveform dir /scratch/gpfs/lsawade/database/C010304J/CMT_SIMs/CMT_depth/OUTPUT_FILES
Writing path file /scratch/gpfs/lsawade/database/C010304J/CMT_SIMs/CMT_depth/CMT_depth.yml.
Creating directory /scratch/gpfs/lsawade/database/C010304J/CMT_SIMs/CMT_lat.
Creating directory /scratch/gpfs/lsawade/database/C010304J/CMT_SIMs/CMT_lat/DATA.
Copying file /scratch/gpfs/lsawade/specfem3d_globe/DATA/STATIONS file to /scratch/gpfs/lsawade/database/C010304J/CMT_SIMs/CMT_lat/DATA/STATIONS.
Copying file /scratch/gpfs/lsawade/specfem3d_globe/DATA/Par_file file to /scratch/gpfs/lsawade/database/C010304J/CMT_SIMs/CMT_lat/DATA/Par_file.
Copying file /scratch/gpfs/lsawade/specfem3d_globe/DATA/CMTSOLUTION file to /scratch/gpfs/lsawade/database/C010304J/CMT_SIMs/CMT_lat/DATA/CMTSOLUTION.
Copying directory /scratch/gpfs/lsawade/specfem3d_globe/OUTPUT_FILES file to /scratch/gpfs/lsawade/database/C010304J/CMT_SIMs/CMT_lat/OUTPUT_FILES
Writing YAML path file from waveform dir /scratch/gpfs/lsawade/database/C010304J/CMT_SIMs/CMT_lat/OUTPUT_FILES
Writing path file /scratch/gpfs/lsawade/database/C010304J/CMT_SIMs/CMT_lat/CMT_lat.yml.
Creating directory /scratch/gpfs/lsawade/database/C010304J/CMT_SIMs/CMT_lon.
Creating directory /scratch/gpfs/lsawade/database/C010304J/CMT_SIMs/CMT_lon/DATA.
Copying file /scratch/gpfs/lsawade/specfem3d_globe/DATA/STATIONS file to /scratch/gpfs/lsawade/database/C010304J/CMT_SIMs/CMT_lon/DATA/STATIONS.
Copying file /scratch/gpfs/lsawade/specfem3d_globe/DATA/Par_file file to /scratch/gpfs/lsawade/database/C010304J/CMT_SIMs/CMT_lon/DATA/Par_file.
Copying file /scratch/gpfs/lsawade/specfem3d_globe/DATA/CMTSOLUTION file to /scratch/gpfs/lsawade/database/C010304J/CMT_SIMs/CMT_lon/DATA/CMTSOLUTION.
Copying directory /scratch/gpfs/lsawade/specfem3d_globe/OUTPUT_FILES file to /scratch/gpfs/lsawade/database/C010304J/CMT_SIMs/CMT_lon/OUTPUT_FILES
Writing YAML path file from waveform dir /scratch/gpfs/lsawade/database/C010304J/CMT_SIMs/CMT_lon/OUTPUT_FILES
Writing path file /scratch/gpfs/lsawade/database/C010304J/CMT_SIMs/CMT_lon/CMT_lon.yml.
Done.

Earthquake Parameters
--------------------------------------------------
Earthquake ID: 010304J
Origin Time: 2004-01-03T16:23:30.720000Z
Origin Latitude: -22.41
Origin Longitude: 169.72

Download Parameters:
--------------------------------------------------
Starttime: 2004-01-03T16:22:30.720000Z
Endtime: 2004-01-03T18:29:10.720000Z
Duration [s]: 7600
Channels: ['BHN', 'BHE', 'BHZ']
Locations: ['00']

Saving Parameters:
--------------------------------------------------
Output Directory: /tigress/lsawade/database/C010304J

Reading data selection from list file '/tigress/lsawade/database/C010304J/request.txt'
Received 7.2 KB of metadata in 0.5 seconds (15.7 KB/s)
Processed metadata for 295 channel epochs in 0.5 seconds
Received 49.9 MB of time series data in 51.5 seconds (992.1 KB/s) - written to /tigress/lsawade/database/C010304J/seismograms/obs/010304J.mseed
Received 238.6 KB of StationXML in 4.6 seconds (51.5 KB/s)
DONE at 2019-12-03 22:31:24

STATIONS FILE WRITTEN.

Submitted batch job 4066937
Inverting /tigress/lsawade/CMTS/cmt_to_be_run/C020504B

******** PACKAGE INFO ********************************
GCMT3D Location:_________________ /home/lsawade/GCMT3D
Workflow Directory:______________ /home/lsawade/GCMT3D/workflow
Slurmjob Directory:______________ /home/lsawade/GCMT3D/workflow/slurmwf
Bin directory (important):_______ /home/lsawade/GCMT3D/workflow/bins


******** DATABASE INFO *******************************
Database directory:______________ /tigress/lsawade/database


******** EARTHQUAKE INFO *****************************
CMTSOLUTION:_____________________ /tigress/lsawade/CMTS/cmt_to_be_run/C020504B
Earthquake ID:___________________ 020504B
Earthquake Directory:____________ /tigress/lsawade/database/C020504B
Earthquake File in Database:_____ /tigress/lsawade/database/C020504B/C020504B.cmt
Inversion Logging Directory:_____ /tigress/lsawade/database/C020504B/logs
Simulation Directory:____________ /tigress/lsawade/database/C020504B/CMT_SIMs
Process Path Directory:__________ /tigress/lsawade/database/C020504B/seismograms/process_paths
Window Path Directory:___________ /tigress/lsawade/database/C020504B/window_data/window_paths


Creating earthquake entry in database /scratch/gpfs/lsawade/database ... 
Creating directory /scratch/gpfs/lsawade/database/C020504B.
Copying file /tigress/lsawade/CMTS/cmt_to_be_run/C020504B file to /scratch/gpfs/lsawade/database/C020504B/C020504B.cmt.
Writing earthquake /tigress/lsawade/CMTS/cmt_to_be_run/C020504B file to /scratch/gpfs/lsawade/database/C020504B/C020504B.xml.
Creating directory /scratch/gpfs/lsawade/database/C020504B/station_data.
Creating directory /scratch/gpfs/lsawade/database/C020504B/logs.
Creating directory /scratch/gpfs/lsawade/database/C020504B/window_data.
Creating directory /scratch/gpfs/lsawade/database/C020504B/window_data/window_paths.
Creating directory /scratch/gpfs/lsawade/database/C020504B/seismograms.
Creating directory /scratch/gpfs/lsawade/database/C020504B/seismograms/syn.
Creating directory /scratch/gpfs/lsawade/database/C020504B/seismograms/obs.
Writing the YAML path file to /scratch/gpfs/lsawade/database/C020504B/seismograms/obs/observed.yml
Writing path file /scratch/gpfs/lsawade/database/C020504B/seismograms/obs/observed.yml.
Creating directory /scratch/gpfs/lsawade/database/C020504B/seismograms/process_paths.
Creating directory /scratch/gpfs/lsawade/database/C020504B/seismograms/processed_seismograms.
Creating directory /scratch/gpfs/lsawade/database/C020504B/inversion.
Creating directory /scratch/gpfs/lsawade/database/C020504B/inversion/inversion_dicts.
Creating directory /scratch/gpfs/lsawade/database/C020504B/inversion/inversion_output.
Creating directory /scratch/gpfs/lsawade/database/C020504B/inversion/inversion_output/new_synt.
Creating directory /scratch/gpfs/lsawade/database/C020504B/inversion/inversion_output/waveform_plots.
Creating directory /scratch/gpfs/lsawade/database/C020504B/CMT_SIMs.
Creating directory /scratch/gpfs/lsawade/database/C020504B/CMT_SIMs/CMT.
Creating directory /scratch/gpfs/lsawade/database/C020504B/CMT_SIMs/CMT/DATA.
Copying file /scratch/gpfs/lsawade/specfem3d_globe/DATA/STATIONS file to /scratch/gpfs/lsawade/database/C020504B/CMT_SIMs/CMT/DATA/STATIONS.
Copying file /scratch/gpfs/lsawade/specfem3d_globe/DATA/Par_file file to /scratch/gpfs/lsawade/database/C020504B/CMT_SIMs/CMT/DATA/Par_file.
Copying file /scratch/gpfs/lsawade/specfem3d_globe/DATA/CMTSOLUTION file to /scratch/gpfs/lsawade/database/C020504B/CMT_SIMs/CMT/DATA/CMTSOLUTION.
Copying directory /scratch/gpfs/lsawade/specfem3d_globe/OUTPUT_FILES file to /scratch/gpfs/lsawade/database/C020504B/CMT_SIMs/CMT/OUTPUT_FILES
Writing YAML path file from waveform dir /scratch/gpfs/lsawade/database/C020504B/CMT_SIMs/CMT/OUTPUT_FILES
Writing path file /scratch/gpfs/lsawade/database/C020504B/CMT_SIMs/CMT/CMT.yml.
Creating directory /scratch/gpfs/lsawade/database/C020504B/CMT_SIMs/CMT_rr.
Creating directory /scratch/gpfs/lsawade/database/C020504B/CMT_SIMs/CMT_rr/DATA.
Copying file /scratch/gpfs/lsawade/specfem3d_globe/DATA/STATIONS file to /scratch/gpfs/lsawade/database/C020504B/CMT_SIMs/CMT_rr/DATA/STATIONS.
Copying file /scratch/gpfs/lsawade/specfem3d_globe/DATA/Par_file file to /scratch/gpfs/lsawade/database/C020504B/CMT_SIMs/CMT_rr/DATA/Par_file.
Copying file /scratch/gpfs/lsawade/specfem3d_globe/DATA/CMTSOLUTION file to /scratch/gpfs/lsawade/database/C020504B/CMT_SIMs/CMT_rr/DATA/CMTSOLUTION.
Copying directory /scratch/gpfs/lsawade/specfem3d_globe/OUTPUT_FILES file to /scratch/gpfs/lsawade/database/C020504B/CMT_SIMs/CMT_rr/OUTPUT_FILES
Writing YAML path file from waveform dir /scratch/gpfs/lsawade/database/C020504B/CMT_SIMs/CMT_rr/OUTPUT_FILES
Writing path file /scratch/gpfs/lsawade/database/C020504B/CMT_SIMs/CMT_rr/CMT_rr.yml.
Creating directory /scratch/gpfs/lsawade/database/C020504B/CMT_SIMs/CMT_tt.
Creating directory /scratch/gpfs/lsawade/database/C020504B/CMT_SIMs/CMT_tt/DATA.
Copying file /scratch/gpfs/lsawade/specfem3d_globe/DATA/STATIONS file to /scratch/gpfs/lsawade/database/C020504B/CMT_SIMs/CMT_tt/DATA/STATIONS.
Copying file /scratch/gpfs/lsawade/specfem3d_globe/DATA/Par_file file to /scratch/gpfs/lsawade/database/C020504B/CMT_SIMs/CMT_tt/DATA/Par_file.
Copying file /scratch/gpfs/lsawade/specfem3d_globe/DATA/CMTSOLUTION file to /scratch/gpfs/lsawade/database/C020504B/CMT_SIMs/CMT_tt/DATA/CMTSOLUTION.
Copying directory /scratch/gpfs/lsawade/specfem3d_globe/OUTPUT_FILES file to /scratch/gpfs/lsawade/database/C020504B/CMT_SIMs/CMT_tt/OUTPUT_FILES
Writing YAML path file from waveform dir /scratch/gpfs/lsawade/database/C020504B/CMT_SIMs/CMT_tt/OUTPUT_FILES
Writing path file /scratch/gpfs/lsawade/database/C020504B/CMT_SIMs/CMT_tt/CMT_tt.yml.
Creating directory /scratch/gpfs/lsawade/database/C020504B/CMT_SIMs/CMT_pp.
Creating directory /scratch/gpfs/lsawade/database/C020504B/CMT_SIMs/CMT_pp/DATA.
Copying file /scratch/gpfs/lsawade/specfem3d_globe/DATA/STATIONS file to /scratch/gpfs/lsawade/database/C020504B/CMT_SIMs/CMT_pp/DATA/STATIONS.
Copying file /scratch/gpfs/lsawade/specfem3d_globe/DATA/Par_file file to /scratch/gpfs/lsawade/database/C020504B/CMT_SIMs/CMT_pp/DATA/Par_file.
Copying file /scratch/gpfs/lsawade/specfem3d_globe/DATA/CMTSOLUTION file to /scratch/gpfs/lsawade/database/C020504B/CMT_SIMs/CMT_pp/DATA/CMTSOLUTION.
Copying directory /scratch/gpfs/lsawade/specfem3d_globe/OUTPUT_FILES file to /scratch/gpfs/lsawade/database/C020504B/CMT_SIMs/CMT_pp/OUTPUT_FILES
Writing YAML path file from waveform dir /scratch/gpfs/lsawade/database/C020504B/CMT_SIMs/CMT_pp/OUTPUT_FILES
Writing path file /scratch/gpfs/lsawade/database/C020504B/CMT_SIMs/CMT_pp/CMT_pp.yml.
Creating directory /scratch/gpfs/lsawade/database/C020504B/CMT_SIMs/CMT_rt.
Creating directory /scratch/gpfs/lsawade/database/C020504B/CMT_SIMs/CMT_rt/DATA.
Copying file /scratch/gpfs/lsawade/specfem3d_globe/DATA/STATIONS file to /scratch/gpfs/lsawade/database/C020504B/CMT_SIMs/CMT_rt/DATA/STATIONS.
Copying file /scratch/gpfs/lsawade/specfem3d_globe/DATA/Par_file file to /scratch/gpfs/lsawade/database/C020504B/CMT_SIMs/CMT_rt/DATA/Par_file.
Copying file /scratch/gpfs/lsawade/specfem3d_globe/DATA/CMTSOLUTION file to /scratch/gpfs/lsawade/database/C020504B/CMT_SIMs/CMT_rt/DATA/CMTSOLUTION.
Copying directory /scratch/gpfs/lsawade/specfem3d_globe/OUTPUT_FILES file to /scratch/gpfs/lsawade/database/C020504B/CMT_SIMs/CMT_rt/OUTPUT_FILES
Writing YAML path file from waveform dir /scratch/gpfs/lsawade/database/C020504B/CMT_SIMs/CMT_rt/OUTPUT_FILES
Writing path file /scratch/gpfs/lsawade/database/C020504B/CMT_SIMs/CMT_rt/CMT_rt.yml.
Creating directory /scratch/gpfs/lsawade/database/C020504B/CMT_SIMs/CMT_rp.
Creating directory /scratch/gpfs/lsawade/database/C020504B/CMT_SIMs/CMT_rp/DATA.
Copying file /scratch/gpfs/lsawade/specfem3d_globe/DATA/STATIONS file to /scratch/gpfs/lsawade/database/C020504B/CMT_SIMs/CMT_rp/DATA/STATIONS.
Copying file /scratch/gpfs/lsawade/specfem3d_globe/DATA/Par_file file to /scratch/gpfs/lsawade/database/C020504B/CMT_SIMs/CMT_rp/DATA/Par_file.
Copying file /scratch/gpfs/lsawade/specfem3d_globe/DATA/CMTSOLUTION file to /scratch/gpfs/lsawade/database/C020504B/CMT_SIMs/CMT_rp/DATA/CMTSOLUTION.
Copying directory /scratch/gpfs/lsawade/specfem3d_globe/OUTPUT_FILES file to /scratch/gpfs/lsawade/database/C020504B/CMT_SIMs/CMT_rp/OUTPUT_FILES
Writing YAML path file from waveform dir /scratch/gpfs/lsawade/database/C020504B/CMT_SIMs/CMT_rp/OUTPUT_FILES
Writing path file /scratch/gpfs/lsawade/database/C020504B/CMT_SIMs/CMT_rp/CMT_rp.yml.
Creating directory /scratch/gpfs/lsawade/database/C020504B/CMT_SIMs/CMT_tp.
Creating directory /scratch/gpfs/lsawade/database/C020504B/CMT_SIMs/CMT_tp/DATA.
Copying file /scratch/gpfs/lsawade/specfem3d_globe/DATA/STATIONS file to /scratch/gpfs/lsawade/database/C020504B/CMT_SIMs/CMT_tp/DATA/STATIONS.
Copying file /scratch/gpfs/lsawade/specfem3d_globe/DATA/Par_file file to /scratch/gpfs/lsawade/database/C020504B/CMT_SIMs/CMT_tp/DATA/Par_file.
Copying file /scratch/gpfs/lsawade/specfem3d_globe/DATA/CMTSOLUTION file to /scratch/gpfs/lsawade/database/C020504B/CMT_SIMs/CMT_tp/DATA/CMTSOLUTION.
Copying directory /scratch/gpfs/lsawade/specfem3d_globe/OUTPUT_FILES file to /scratch/gpfs/lsawade/database/C020504B/CMT_SIMs/CMT_tp/OUTPUT_FILES
Writing YAML path file from waveform dir /scratch/gpfs/lsawade/database/C020504B/CMT_SIMs/CMT_tp/OUTPUT_FILES
Writing path file /scratch/gpfs/lsawade/database/C020504B/CMT_SIMs/CMT_tp/CMT_tp.yml.
Creating directory /scratch/gpfs/lsawade/database/C020504B/CMT_SIMs/CMT_depth.
Creating directory /scratch/gpfs/lsawade/database/C020504B/CMT_SIMs/CMT_depth/DATA.
Copying file /scratch/gpfs/lsawade/specfem3d_globe/DATA/STATIONS file to /scratch/gpfs/lsawade/database/C020504B/CMT_SIMs/CMT_depth/DATA/STATIONS.
Copying file /scratch/gpfs/lsawade/specfem3d_globe/DATA/Par_file file to /scratch/gpfs/lsawade/database/C020504B/CMT_SIMs/CMT_depth/DATA/Par_file.
Copying file /scratch/gpfs/lsawade/specfem3d_globe/DATA/CMTSOLUTION file to /scratch/gpfs/lsawade/database/C020504B/CMT_SIMs/CMT_depth/DATA/CMTSOLUTION.
Copying directory /scratch/gpfs/lsawade/specfem3d_globe/OUTPUT_FILES file to /scratch/gpfs/lsawade/database/C020504B/CMT_SIMs/CMT_depth/OUTPUT_FILES
Writing YAML path file from waveform dir /scratch/gpfs/lsawade/database/C020504B/CMT_SIMs/CMT_depth/OUTPUT_FILES
Writing path file /scratch/gpfs/lsawade/database/C020504B/CMT_SIMs/CMT_depth/CMT_depth.yml.
Creating directory /scratch/gpfs/lsawade/database/C020504B/CMT_SIMs/CMT_lat.
Creating directory /scratch/gpfs/lsawade/database/C020504B/CMT_SIMs/CMT_lat/DATA.
Copying file /scratch/gpfs/lsawade/specfem3d_globe/DATA/STATIONS file to /scratch/gpfs/lsawade/database/C020504B/CMT_SIMs/CMT_lat/DATA/STATIONS.
Copying file /scratch/gpfs/lsawade/specfem3d_globe/DATA/Par_file file to /scratch/gpfs/lsawade/database/C020504B/CMT_SIMs/CMT_lat/DATA/Par_file.
Copying file /scratch/gpfs/lsawade/specfem3d_globe/DATA/CMTSOLUTION file to /scratch/gpfs/lsawade/database/C020504B/CMT_SIMs/CMT_lat/DATA/CMTSOLUTION.
Copying directory /scratch/gpfs/lsawade/specfem3d_globe/OUTPUT_FILES file to /scratch/gpfs/lsawade/database/C020504B/CMT_SIMs/CMT_lat/OUTPUT_FILES
Writing YAML path file from waveform dir /scratch/gpfs/lsawade/database/C020504B/CMT_SIMs/CMT_lat/OUTPUT_FILES
Writing path file /scratch/gpfs/lsawade/database/C020504B/CMT_SIMs/CMT_lat/CMT_lat.yml.
Creating directory /scratch/gpfs/lsawade/database/C020504B/CMT_SIMs/CMT_lon.
Creating directory /scratch/gpfs/lsawade/database/C020504B/CMT_SIMs/CMT_lon/DATA.
Copying file /scratch/gpfs/lsawade/specfem3d_globe/DATA/STATIONS file to /scratch/gpfs/lsawade/database/C020504B/CMT_SIMs/CMT_lon/DATA/STATIONS.
Copying file /scratch/gpfs/lsawade/specfem3d_globe/DATA/Par_file file to /scratch/gpfs/lsawade/database/C020504B/CMT_SIMs/CMT_lon/DATA/Par_file.
Copying file /scratch/gpfs/lsawade/specfem3d_globe/DATA/CMTSOLUTION file to /scratch/gpfs/lsawade/database/C020504B/CMT_SIMs/CMT_lon/DATA/CMTSOLUTION.
Copying directory /scratch/gpfs/lsawade/specfem3d_globe/OUTPUT_FILES file to /scratch/gpfs/lsawade/database/C020504B/CMT_SIMs/CMT_lon/OUTPUT_FILES
Writing YAML path file from waveform dir /scratch/gpfs/lsawade/database/C020504B/CMT_SIMs/CMT_lon/OUTPUT_FILES
Writing path file /scratch/gpfs/lsawade/database/C020504B/CMT_SIMs/CMT_lon/CMT_lon.yml.
Done.

Earthquake Parameters
--------------------------------------------------
Earthquake ID: 020504B
Origin Time: 2004-02-05T21:05:12.780000Z
Origin Latitude: -3.62
Origin Longitude: 135.53

Download Parameters:
--------------------------------------------------
Starttime: 2004-02-05T21:04:12.780000Z
Endtime: 2004-02-05T23:10:52.780000Z
Duration [s]: 7600
Channels: ['BHN', 'BHE', 'BHZ']
Locations: ['00']

Saving Parameters:
--------------------------------------------------
Output Directory: /tigress/lsawade/database/C020504B

Reading data selection from list file '/tigress/lsawade/database/C020504B/request.txt'
Received 7.4 KB of metadata in 0.5 seconds (15.3 KB/s)
Processed metadata for 299 channel epochs in 0.6 seconds
Received 48.2 MB of time series data in 47.4 seconds (1.0 MB/s) - written to /tigress/lsawade/database/C020504B/seismograms/obs/020504B.mseed
Received 246.5 KB of StationXML in 4.3 seconds (56.7 KB/s)
DONE at 2019-12-03 22:32:27

STATIONS FILE WRITTEN.

Submitted batch job 4066939
Inverting /tigress/lsawade/CMTS/cmt_to_be_run/C020704A

******** PACKAGE INFO ********************************
GCMT3D Location:_________________ /home/lsawade/GCMT3D
Workflow Directory:______________ /home/lsawade/GCMT3D/workflow
Slurmjob Directory:______________ /home/lsawade/GCMT3D/workflow/slurmwf
Bin directory (important):_______ /home/lsawade/GCMT3D/workflow/bins


******** DATABASE INFO *******************************
Database directory:______________ /tigress/lsawade/database


******** EARTHQUAKE INFO *****************************
CMTSOLUTION:_____________________ /tigress/lsawade/CMTS/cmt_to_be_run/C020704A
Earthquake ID:___________________ 020704A
Earthquake Directory:____________ /tigress/lsawade/database/C020704A
Earthquake File in Database:_____ /tigress/lsawade/database/C020704A/C020704A.cmt
Inversion Logging Directory:_____ /tigress/lsawade/database/C020704A/logs
Simulation Directory:____________ /tigress/lsawade/database/C020704A/CMT_SIMs
Process Path Directory:__________ /tigress/lsawade/database/C020704A/seismograms/process_paths
Window Path Directory:___________ /tigress/lsawade/database/C020704A/window_data/window_paths


Creating earthquake entry in database /scratch/gpfs/lsawade/database ... 
Creating directory /scratch/gpfs/lsawade/database/C020704A.
Copying file /tigress/lsawade/CMTS/cmt_to_be_run/C020704A file to /scratch/gpfs/lsawade/database/C020704A/C020704A.cmt.
Writing earthquake /tigress/lsawade/CMTS/cmt_to_be_run/C020704A file to /scratch/gpfs/lsawade/database/C020704A/C020704A.xml.
Creating directory /scratch/gpfs/lsawade/database/C020704A/station_data.
Creating directory /scratch/gpfs/lsawade/database/C020704A/logs.
Creating directory /scratch/gpfs/lsawade/database/C020704A/window_data.
Creating directory /scratch/gpfs/lsawade/database/C020704A/window_data/window_paths.
Creating directory /scratch/gpfs/lsawade/database/C020704A/seismograms.
Creating directory /scratch/gpfs/lsawade/database/C020704A/seismograms/syn.
Creating directory /scratch/gpfs/lsawade/database/C020704A/seismograms/obs.
Writing the YAML path file to /scratch/gpfs/lsawade/database/C020704A/seismograms/obs/observed.yml
Writing path file /scratch/gpfs/lsawade/database/C020704A/seismograms/obs/observed.yml.
Creating directory /scratch/gpfs/lsawade/database/C020704A/seismograms/process_paths.
Creating directory /scratch/gpfs/lsawade/database/C020704A/seismograms/processed_seismograms.
Creating directory /scratch/gpfs/lsawade/database/C020704A/inversion.
Creating directory /scratch/gpfs/lsawade/database/C020704A/inversion/inversion_dicts.
Creating directory /scratch/gpfs/lsawade/database/C020704A/inversion/inversion_output.
Creating directory /scratch/gpfs/lsawade/database/C020704A/inversion/inversion_output/new_synt.
Creating directory /scratch/gpfs/lsawade/database/C020704A/inversion/inversion_output/waveform_plots.
Creating directory /scratch/gpfs/lsawade/database/C020704A/CMT_SIMs.
Creating directory /scratch/gpfs/lsawade/database/C020704A/CMT_SIMs/CMT.
Creating directory /scratch/gpfs/lsawade/database/C020704A/CMT_SIMs/CMT/DATA.
Copying file /scratch/gpfs/lsawade/specfem3d_globe/DATA/STATIONS file to /scratch/gpfs/lsawade/database/C020704A/CMT_SIMs/CMT/DATA/STATIONS.
Copying file /scratch/gpfs/lsawade/specfem3d_globe/DATA/Par_file file to /scratch/gpfs/lsawade/database/C020704A/CMT_SIMs/CMT/DATA/Par_file.
Copying file /scratch/gpfs/lsawade/specfem3d_globe/DATA/CMTSOLUTION file to /scratch/gpfs/lsawade/database/C020704A/CMT_SIMs/CMT/DATA/CMTSOLUTION.
Copying directory /scratch/gpfs/lsawade/specfem3d_globe/OUTPUT_FILES file to /scratch/gpfs/lsawade/database/C020704A/CMT_SIMs/CMT/OUTPUT_FILES
Writing YAML path file from waveform dir /scratch/gpfs/lsawade/database/C020704A/CMT_SIMs/CMT/OUTPUT_FILES
Writing path file /scratch/gpfs/lsawade/database/C020704A/CMT_SIMs/CMT/CMT.yml.
Creating directory /scratch/gpfs/lsawade/database/C020704A/CMT_SIMs/CMT_rr.
Creating directory /scratch/gpfs/lsawade/database/C020704A/CMT_SIMs/CMT_rr/DATA.
Copying file /scratch/gpfs/lsawade/specfem3d_globe/DATA/STATIONS file to /scratch/gpfs/lsawade/database/C020704A/CMT_SIMs/CMT_rr/DATA/STATIONS.
Copying file /scratch/gpfs/lsawade/specfem3d_globe/DATA/Par_file file to /scratch/gpfs/lsawade/database/C020704A/CMT_SIMs/CMT_rr/DATA/Par_file.
Copying file /scratch/gpfs/lsawade/specfem3d_globe/DATA/CMTSOLUTION file to /scratch/gpfs/lsawade/database/C020704A/CMT_SIMs/CMT_rr/DATA/CMTSOLUTION.
Copying directory /scratch/gpfs/lsawade/specfem3d_globe/OUTPUT_FILES file to /scratch/gpfs/lsawade/database/C020704A/CMT_SIMs/CMT_rr/OUTPUT_FILES
Writing YAML path file from waveform dir /scratch/gpfs/lsawade/database/C020704A/CMT_SIMs/CMT_rr/OUTPUT_FILES
Writing path file /scratch/gpfs/lsawade/database/C020704A/CMT_SIMs/CMT_rr/CMT_rr.yml.
Creating directory /scratch/gpfs/lsawade/database/C020704A/CMT_SIMs/CMT_tt.
Creating directory /scratch/gpfs/lsawade/database/C020704A/CMT_SIMs/CMT_tt/DATA.
Copying file /scratch/gpfs/lsawade/specfem3d_globe/DATA/STATIONS file to /scratch/gpfs/lsawade/database/C020704A/CMT_SIMs/CMT_tt/DATA/STATIONS.
Copying file /scratch/gpfs/lsawade/specfem3d_globe/DATA/Par_file file to /scratch/gpfs/lsawade/database/C020704A/CMT_SIMs/CMT_tt/DATA/Par_file.
Copying file /scratch/gpfs/lsawade/specfem3d_globe/DATA/CMTSOLUTION file to /scratch/gpfs/lsawade/database/C020704A/CMT_SIMs/CMT_tt/DATA/CMTSOLUTION.
Copying directory /scratch/gpfs/lsawade/specfem3d_globe/OUTPUT_FILES file to /scratch/gpfs/lsawade/database/C020704A/CMT_SIMs/CMT_tt/OUTPUT_FILES
Writing YAML path file from waveform dir /scratch/gpfs/lsawade/database/C020704A/CMT_SIMs/CMT_tt/OUTPUT_FILES
Writing path file /scratch/gpfs/lsawade/database/C020704A/CMT_SIMs/CMT_tt/CMT_tt.yml.
Creating directory /scratch/gpfs/lsawade/database/C020704A/CMT_SIMs/CMT_pp.
Creating directory /scratch/gpfs/lsawade/database/C020704A/CMT_SIMs/CMT_pp/DATA.
Copying file /scratch/gpfs/lsawade/specfem3d_globe/DATA/STATIONS file to /scratch/gpfs/lsawade/database/C020704A/CMT_SIMs/CMT_pp/DATA/STATIONS.
Copying file /scratch/gpfs/lsawade/specfem3d_globe/DATA/Par_file file to /scratch/gpfs/lsawade/database/C020704A/CMT_SIMs/CMT_pp/DATA/Par_file.
Copying file /scratch/gpfs/lsawade/specfem3d_globe/DATA/CMTSOLUTION file to /scratch/gpfs/lsawade/database/C020704A/CMT_SIMs/CMT_pp/DATA/CMTSOLUTION.
Copying directory /scratch/gpfs/lsawade/specfem3d_globe/OUTPUT_FILES file to /scratch/gpfs/lsawade/database/C020704A/CMT_SIMs/CMT_pp/OUTPUT_FILES
Writing YAML path file from waveform dir /scratch/gpfs/lsawade/database/C020704A/CMT_SIMs/CMT_pp/OUTPUT_FILES
Writing path file /scratch/gpfs/lsawade/database/C020704A/CMT_SIMs/CMT_pp/CMT_pp.yml.
Creating directory /scratch/gpfs/lsawade/database/C020704A/CMT_SIMs/CMT_rt.
Creating directory /scratch/gpfs/lsawade/database/C020704A/CMT_SIMs/CMT_rt/DATA.
Copying file /scratch/gpfs/lsawade/specfem3d_globe/DATA/STATIONS file to /scratch/gpfs/lsawade/database/C020704A/CMT_SIMs/CMT_rt/DATA/STATIONS.
Copying file /scratch/gpfs/lsawade/specfem3d_globe/DATA/Par_file file to /scratch/gpfs/lsawade/database/C020704A/CMT_SIMs/CMT_rt/DATA/Par_file.
Copying file /scratch/gpfs/lsawade/specfem3d_globe/DATA/CMTSOLUTION file to /scratch/gpfs/lsawade/database/C020704A/CMT_SIMs/CMT_rt/DATA/CMTSOLUTION.
Copying directory /scratch/gpfs/lsawade/specfem3d_globe/OUTPUT_FILES file to /scratch/gpfs/lsawade/database/C020704A/CMT_SIMs/CMT_rt/OUTPUT_FILES
Writing YAML path file from waveform dir /scratch/gpfs/lsawade/database/C020704A/CMT_SIMs/CMT_rt/OUTPUT_FILES
Writing path file /scratch/gpfs/lsawade/database/C020704A/CMT_SIMs/CMT_rt/CMT_rt.yml.
Creating directory /scratch/gpfs/lsawade/database/C020704A/CMT_SIMs/CMT_rp.
Creating directory /scratch/gpfs/lsawade/database/C020704A/CMT_SIMs/CMT_rp/DATA.
Copying file /scratch/gpfs/lsawade/specfem3d_globe/DATA/STATIONS file to /scratch/gpfs/lsawade/database/C020704A/CMT_SIMs/CMT_rp/DATA/STATIONS.
Copying file /scratch/gpfs/lsawade/specfem3d_globe/DATA/Par_file file to /scratch/gpfs/lsawade/database/C020704A/CMT_SIMs/CMT_rp/DATA/Par_file.
Copying file /scratch/gpfs/lsawade/specfem3d_globe/DATA/CMTSOLUTION file to /scratch/gpfs/lsawade/database/C020704A/CMT_SIMs/CMT_rp/DATA/CMTSOLUTION.
Copying directory /scratch/gpfs/lsawade/specfem3d_globe/OUTPUT_FILES file to /scratch/gpfs/lsawade/database/C020704A/CMT_SIMs/CMT_rp/OUTPUT_FILES
Writing YAML path file from waveform dir /scratch/gpfs/lsawade/database/C020704A/CMT_SIMs/CMT_rp/OUTPUT_FILES
Writing path file /scratch/gpfs/lsawade/database/C020704A/CMT_SIMs/CMT_rp/CMT_rp.yml.
Creating directory /scratch/gpfs/lsawade/database/C020704A/CMT_SIMs/CMT_tp.
Creating directory /scratch/gpfs/lsawade/database/C020704A/CMT_SIMs/CMT_tp/DATA.
Copying file /scratch/gpfs/lsawade/specfem3d_globe/DATA/STATIONS file to /scratch/gpfs/lsawade/database/C020704A/CMT_SIMs/CMT_tp/DATA/STATIONS.
Copying file /scratch/gpfs/lsawade/specfem3d_globe/DATA/Par_file file to /scratch/gpfs/lsawade/database/C020704A/CMT_SIMs/CMT_tp/DATA/Par_file.
Copying file /scratch/gpfs/lsawade/specfem3d_globe/DATA/CMTSOLUTION file to /scratch/gpfs/lsawade/database/C020704A/CMT_SIMs/CMT_tp/DATA/CMTSOLUTION.
Copying directory /scratch/gpfs/lsawade/specfem3d_globe/OUTPUT_FILES file to /scratch/gpfs/lsawade/database/C020704A/CMT_SIMs/CMT_tp/OUTPUT_FILES
Writing YAML path file from waveform dir /scratch/gpfs/lsawade/database/C020704A/CMT_SIMs/CMT_tp/OUTPUT_FILES
Writing path file /scratch/gpfs/lsawade/database/C020704A/CMT_SIMs/CMT_tp/CMT_tp.yml.
Creating directory /scratch/gpfs/lsawade/database/C020704A/CMT_SIMs/CMT_depth.
Creating directory /scratch/gpfs/lsawade/database/C020704A/CMT_SIMs/CMT_depth/DATA.
Copying file /scratch/gpfs/lsawade/specfem3d_globe/DATA/STATIONS file to /scratch/gpfs/lsawade/database/C020704A/CMT_SIMs/CMT_depth/DATA/STATIONS.
Copying file /scratch/gpfs/lsawade/specfem3d_globe/DATA/Par_file file to /scratch/gpfs/lsawade/database/C020704A/CMT_SIMs/CMT_depth/DATA/Par_file.
Copying file /scratch/gpfs/lsawade/specfem3d_globe/DATA/CMTSOLUTION file to /scratch/gpfs/lsawade/database/C020704A/CMT_SIMs/CMT_depth/DATA/CMTSOLUTION.
Copying directory /scratch/gpfs/lsawade/specfem3d_globe/OUTPUT_FILES file to /scratch/gpfs/lsawade/database/C020704A/CMT_SIMs/CMT_depth/OUTPUT_FILES
Writing YAML path file from waveform dir /scratch/gpfs/lsawade/database/C020704A/CMT_SIMs/CMT_depth/OUTPUT_FILES
Writing path file /scratch/gpfs/lsawade/database/C020704A/CMT_SIMs/CMT_depth/CMT_depth.yml.
Creating directory /scratch/gpfs/lsawade/database/C020704A/CMT_SIMs/CMT_lat.
Creating directory /scratch/gpfs/lsawade/database/C020704A/CMT_SIMs/CMT_lat/DATA.
Copying file /scratch/gpfs/lsawade/specfem3d_globe/DATA/STATIONS file to /scratch/gpfs/lsawade/database/C020704A/CMT_SIMs/CMT_lat/DATA/STATIONS.
Copying file /scratch/gpfs/lsawade/specfem3d_globe/DATA/Par_file file to /scratch/gpfs/lsawade/database/C020704A/CMT_SIMs/CMT_lat/DATA/Par_file.
Copying file /scratch/gpfs/lsawade/specfem3d_globe/DATA/CMTSOLUTION file to /scratch/gpfs/lsawade/database/C020704A/CMT_SIMs/CMT_lat/DATA/CMTSOLUTION.
Copying directory /scratch/gpfs/lsawade/specfem3d_globe/OUTPUT_FILES file to /scratch/gpfs/lsawade/database/C020704A/CMT_SIMs/CMT_lat/OUTPUT_FILES
Writing YAML path file from waveform dir /scratch/gpfs/lsawade/database/C020704A/CMT_SIMs/CMT_lat/OUTPUT_FILES
Writing path file /scratch/gpfs/lsawade/database/C020704A/CMT_SIMs/CMT_lat/CMT_lat.yml.
Creating directory /scratch/gpfs/lsawade/database/C020704A/CMT_SIMs/CMT_lon.
Creating directory /scratch/gpfs/lsawade/database/C020704A/CMT_SIMs/CMT_lon/DATA.
Copying file /scratch/gpfs/lsawade/specfem3d_globe/DATA/STATIONS file to /scratch/gpfs/lsawade/database/C020704A/CMT_SIMs/CMT_lon/DATA/STATIONS.
Copying file /scratch/gpfs/lsawade/specfem3d_globe/DATA/Par_file file to /scratch/gpfs/lsawade/database/C020704A/CMT_SIMs/CMT_lon/DATA/Par_file.
Copying file /scratch/gpfs/lsawade/specfem3d_globe/DATA/CMTSOLUTION file to /scratch/gpfs/lsawade/database/C020704A/CMT_SIMs/CMT_lon/DATA/CMTSOLUTION.
Copying directory /scratch/gpfs/lsawade/specfem3d_globe/OUTPUT_FILES file to /scratch/gpfs/lsawade/database/C020704A/CMT_SIMs/CMT_lon/OUTPUT_FILES
Writing YAML path file from waveform dir /scratch/gpfs/lsawade/database/C020704A/CMT_SIMs/CMT_lon/OUTPUT_FILES
Writing path file /scratch/gpfs/lsawade/database/C020704A/CMT_SIMs/CMT_lon/CMT_lon.yml.
Done.

Earthquake Parameters
--------------------------------------------------
Earthquake ID: 020704A
Origin Time: 2004-02-07T02:42:43.730000Z
Origin Latitude: -4.03
Origin Longitude: 134.78

Download Parameters:
--------------------------------------------------
Starttime: 2004-02-07T02:41:43.730000Z
Endtime: 2004-02-07T04:48:23.730000Z
Duration [s]: 7600
Channels: ['BHN', 'BHE', 'BHZ']
Locations: ['00']

Saving Parameters:
--------------------------------------------------
Output Directory: /tigress/lsawade/database/C020704A

Reading data selection from list file '/tigress/lsawade/database/C020704A/request.txt'
Received 7.4 KB of metadata in 0.4 seconds (18.2 KB/s)
Processed metadata for 299 channel epochs in 0.5 seconds
Received 59.3 MB of time series data in 44.2 seconds (1.3 MB/s) - written to /tigress/lsawade/database/C020704A/seismograms/obs/020704A.mseed
Received 246.5 KB of StationXML in 4.6 seconds (53.9 KB/s)
DONE at 2019-12-03 22:33:30

STATIONS FILE WRITTEN.

Submitted batch job 4066945
Inverting /tigress/lsawade/CMTS/cmt_to_be_run/C071504C

******** PACKAGE INFO ********************************
GCMT3D Location:_________________ /home/lsawade/GCMT3D
Workflow Directory:______________ /home/lsawade/GCMT3D/workflow
Slurmjob Directory:______________ /home/lsawade/GCMT3D/workflow/slurmwf
Bin directory (important):_______ /home/lsawade/GCMT3D/workflow/bins


******** DATABASE INFO *******************************
Database directory:______________ /tigress/lsawade/database


******** EARTHQUAKE INFO *****************************
CMTSOLUTION:_____________________ /tigress/lsawade/CMTS/cmt_to_be_run/C071504C
Earthquake ID:___________________ 071504C
Earthquake Directory:____________ /tigress/lsawade/database/C071504C
Earthquake File in Database:_____ /tigress/lsawade/database/C071504C/C071504C.cmt
Inversion Logging Directory:_____ /tigress/lsawade/database/C071504C/logs
Simulation Directory:____________ /tigress/lsawade/database/C071504C/CMT_SIMs
Process Path Directory:__________ /tigress/lsawade/database/C071504C/seismograms/process_paths
Window Path Directory:___________ /tigress/lsawade/database/C071504C/window_data/window_paths


Creating earthquake entry in database /scratch/gpfs/lsawade/database ... 
Creating directory /scratch/gpfs/lsawade/database/C071504C.
Copying file /tigress/lsawade/CMTS/cmt_to_be_run/C071504C file to /scratch/gpfs/lsawade/database/C071504C/C071504C.cmt.
Writing earthquake /tigress/lsawade/CMTS/cmt_to_be_run/C071504C file to /scratch/gpfs/lsawade/database/C071504C/C071504C.xml.
Creating directory /scratch/gpfs/lsawade/database/C071504C/station_data.
Creating directory /scratch/gpfs/lsawade/database/C071504C/logs.
Creating directory /scratch/gpfs/lsawade/database/C071504C/window_data.
Creating directory /scratch/gpfs/lsawade/database/C071504C/window_data/window_paths.
Creating directory /scratch/gpfs/lsawade/database/C071504C/seismograms.
Creating directory /scratch/gpfs/lsawade/database/C071504C/seismograms/syn.
Creating directory /scratch/gpfs/lsawade/database/C071504C/seismograms/obs.
Writing the YAML path file to /scratch/gpfs/lsawade/database/C071504C/seismograms/obs/observed.yml
Writing path file /scratch/gpfs/lsawade/database/C071504C/seismograms/obs/observed.yml.
Creating directory /scratch/gpfs/lsawade/database/C071504C/seismograms/process_paths.
Creating directory /scratch/gpfs/lsawade/database/C071504C/seismograms/processed_seismograms.
Creating directory /scratch/gpfs/lsawade/database/C071504C/inversion.
Creating directory /scratch/gpfs/lsawade/database/C071504C/inversion/inversion_dicts.
Creating directory /scratch/gpfs/lsawade/database/C071504C/inversion/inversion_output.
Creating directory /scratch/gpfs/lsawade/database/C071504C/inversion/inversion_output/new_synt.
Creating directory /scratch/gpfs/lsawade/database/C071504C/inversion/inversion_output/waveform_plots.
Creating directory /scratch/gpfs/lsawade/database/C071504C/CMT_SIMs.
Creating directory /scratch/gpfs/lsawade/database/C071504C/CMT_SIMs/CMT.
Creating directory /scratch/gpfs/lsawade/database/C071504C/CMT_SIMs/CMT/DATA.
Copying file /scratch/gpfs/lsawade/specfem3d_globe/DATA/STATIONS file to /scratch/gpfs/lsawade/database/C071504C/CMT_SIMs/CMT/DATA/STATIONS.
Copying file /scratch/gpfs/lsawade/specfem3d_globe/DATA/Par_file file to /scratch/gpfs/lsawade/database/C071504C/CMT_SIMs/CMT/DATA/Par_file.
Copying file /scratch/gpfs/lsawade/specfem3d_globe/DATA/CMTSOLUTION file to /scratch/gpfs/lsawade/database/C071504C/CMT_SIMs/CMT/DATA/CMTSOLUTION.
Copying directory /scratch/gpfs/lsawade/specfem3d_globe/OUTPUT_FILES file to /scratch/gpfs/lsawade/database/C071504C/CMT_SIMs/CMT/OUTPUT_FILES
Writing YAML path file from waveform dir /scratch/gpfs/lsawade/database/C071504C/CMT_SIMs/CMT/OUTPUT_FILES
Writing path file /scratch/gpfs/lsawade/database/C071504C/CMT_SIMs/CMT/CMT.yml.
Creating directory /scratch/gpfs/lsawade/database/C071504C/CMT_SIMs/CMT_rr.
Creating directory /scratch/gpfs/lsawade/database/C071504C/CMT_SIMs/CMT_rr/DATA.
Copying file /scratch/gpfs/lsawade/specfem3d_globe/DATA/STATIONS file to /scratch/gpfs/lsawade/database/C071504C/CMT_SIMs/CMT_rr/DATA/STATIONS.
Copying file /scratch/gpfs/lsawade/specfem3d_globe/DATA/Par_file file to /scratch/gpfs/lsawade/database/C071504C/CMT_SIMs/CMT_rr/DATA/Par_file.
Copying file /scratch/gpfs/lsawade/specfem3d_globe/DATA/CMTSOLUTION file to /scratch/gpfs/lsawade/database/C071504C/CMT_SIMs/CMT_rr/DATA/CMTSOLUTION.
Copying directory /scratch/gpfs/lsawade/specfem3d_globe/OUTPUT_FILES file to /scratch/gpfs/lsawade/database/C071504C/CMT_SIMs/CMT_rr/OUTPUT_FILES
Writing YAML path file from waveform dir /scratch/gpfs/lsawade/database/C071504C/CMT_SIMs/CMT_rr/OUTPUT_FILES
Writing path file /scratch/gpfs/lsawade/database/C071504C/CMT_SIMs/CMT_rr/CMT_rr.yml.
Creating directory /scratch/gpfs/lsawade/database/C071504C/CMT_SIMs/CMT_tt.
Creating directory /scratch/gpfs/lsawade/database/C071504C/CMT_SIMs/CMT_tt/DATA.
Copying file /scratch/gpfs/lsawade/specfem3d_globe/DATA/STATIONS file to /scratch/gpfs/lsawade/database/C071504C/CMT_SIMs/CMT_tt/DATA/STATIONS.
Copying file /scratch/gpfs/lsawade/specfem3d_globe/DATA/Par_file file to /scratch/gpfs/lsawade/database/C071504C/CMT_SIMs/CMT_tt/DATA/Par_file.
Copying file /scratch/gpfs/lsawade/specfem3d_globe/DATA/CMTSOLUTION file to /scratch/gpfs/lsawade/database/C071504C/CMT_SIMs/CMT_tt/DATA/CMTSOLUTION.
Copying directory /scratch/gpfs/lsawade/specfem3d_globe/OUTPUT_FILES file to /scratch/gpfs/lsawade/database/C071504C/CMT_SIMs/CMT_tt/OUTPUT_FILES
Writing YAML path file from waveform dir /scratch/gpfs/lsawade/database/C071504C/CMT_SIMs/CMT_tt/OUTPUT_FILES
Writing path file /scratch/gpfs/lsawade/database/C071504C/CMT_SIMs/CMT_tt/CMT_tt.yml.
Creating directory /scratch/gpfs/lsawade/database/C071504C/CMT_SIMs/CMT_pp.
Creating directory /scratch/gpfs/lsawade/database/C071504C/CMT_SIMs/CMT_pp/DATA.
Copying file /scratch/gpfs/lsawade/specfem3d_globe/DATA/STATIONS file to /scratch/gpfs/lsawade/database/C071504C/CMT_SIMs/CMT_pp/DATA/STATIONS.
Copying file /scratch/gpfs/lsawade/specfem3d_globe/DATA/Par_file file to /scratch/gpfs/lsawade/database/C071504C/CMT_SIMs/CMT_pp/DATA/Par_file.
Copying file /scratch/gpfs/lsawade/specfem3d_globe/DATA/CMTSOLUTION file to /scratch/gpfs/lsawade/database/C071504C/CMT_SIMs/CMT_pp/DATA/CMTSOLUTION.
Copying directory /scratch/gpfs/lsawade/specfem3d_globe/OUTPUT_FILES file to /scratch/gpfs/lsawade/database/C071504C/CMT_SIMs/CMT_pp/OUTPUT_FILES
Writing YAML path file from waveform dir /scratch/gpfs/lsawade/database/C071504C/CMT_SIMs/CMT_pp/OUTPUT_FILES
Writing path file /scratch/gpfs/lsawade/database/C071504C/CMT_SIMs/CMT_pp/CMT_pp.yml.
Creating directory /scratch/gpfs/lsawade/database/C071504C/CMT_SIMs/CMT_rt.
Creating directory /scratch/gpfs/lsawade/database/C071504C/CMT_SIMs/CMT_rt/DATA.
Copying file /scratch/gpfs/lsawade/specfem3d_globe/DATA/STATIONS file to /scratch/gpfs/lsawade/database/C071504C/CMT_SIMs/CMT_rt/DATA/STATIONS.
Copying file /scratch/gpfs/lsawade/specfem3d_globe/DATA/Par_file file to /scratch/gpfs/lsawade/database/C071504C/CMT_SIMs/CMT_rt/DATA/Par_file.
Copying file /scratch/gpfs/lsawade/specfem3d_globe/DATA/CMTSOLUTION file to /scratch/gpfs/lsawade/database/C071504C/CMT_SIMs/CMT_rt/DATA/CMTSOLUTION.
Copying directory /scratch/gpfs/lsawade/specfem3d_globe/OUTPUT_FILES file to /scratch/gpfs/lsawade/database/C071504C/CMT_SIMs/CMT_rt/OUTPUT_FILES
Writing YAML path file from waveform dir /scratch/gpfs/lsawade/database/C071504C/CMT_SIMs/CMT_rt/OUTPUT_FILES
Writing path file /scratch/gpfs/lsawade/database/C071504C/CMT_SIMs/CMT_rt/CMT_rt.yml.
Creating directory /scratch/gpfs/lsawade/database/C071504C/CMT_SIMs/CMT_rp.
Creating directory /scratch/gpfs/lsawade/database/C071504C/CMT_SIMs/CMT_rp/DATA.
Copying file /scratch/gpfs/lsawade/specfem3d_globe/DATA/STATIONS file to /scratch/gpfs/lsawade/database/C071504C/CMT_SIMs/CMT_rp/DATA/STATIONS.
Copying file /scratch/gpfs/lsawade/specfem3d_globe/DATA/Par_file file to /scratch/gpfs/lsawade/database/C071504C/CMT_SIMs/CMT_rp/DATA/Par_file.
Copying file /scratch/gpfs/lsawade/specfem3d_globe/DATA/CMTSOLUTION file to /scratch/gpfs/lsawade/database/C071504C/CMT_SIMs/CMT_rp/DATA/CMTSOLUTION.
Copying directory /scratch/gpfs/lsawade/specfem3d_globe/OUTPUT_FILES file to /scratch/gpfs/lsawade/database/C071504C/CMT_SIMs/CMT_rp/OUTPUT_FILES
Writing YAML path file from waveform dir /scratch/gpfs/lsawade/database/C071504C/CMT_SIMs/CMT_rp/OUTPUT_FILES
Writing path file /scratch/gpfs/lsawade/database/C071504C/CMT_SIMs/CMT_rp/CMT_rp.yml.
Creating directory /scratch/gpfs/lsawade/database/C071504C/CMT_SIMs/CMT_tp.
Creating directory /scratch/gpfs/lsawade/database/C071504C/CMT_SIMs/CMT_tp/DATA.
Copying file /scratch/gpfs/lsawade/specfem3d_globe/DATA/STATIONS file to /scratch/gpfs/lsawade/database/C071504C/CMT_SIMs/CMT_tp/DATA/STATIONS.
Copying file /scratch/gpfs/lsawade/specfem3d_globe/DATA/Par_file file to /scratch/gpfs/lsawade/database/C071504C/CMT_SIMs/CMT_tp/DATA/Par_file.
Copying file /scratch/gpfs/lsawade/specfem3d_globe/DATA/CMTSOLUTION file to /scratch/gpfs/lsawade/database/C071504C/CMT_SIMs/CMT_tp/DATA/CMTSOLUTION.
Copying directory /scratch/gpfs/lsawade/specfem3d_globe/OUTPUT_FILES file to /scratch/gpfs/lsawade/database/C071504C/CMT_SIMs/CMT_tp/OUTPUT_FILES
Writing YAML path file from waveform dir /scratch/gpfs/lsawade/database/C071504C/CMT_SIMs/CMT_tp/OUTPUT_FILES
Writing path file /scratch/gpfs/lsawade/database/C071504C/CMT_SIMs/CMT_tp/CMT_tp.yml.
Creating directory /scratch/gpfs/lsawade/database/C071504C/CMT_SIMs/CMT_depth.
Creating directory /scratch/gpfs/lsawade/database/C071504C/CMT_SIMs/CMT_depth/DATA.
Copying file /scratch/gpfs/lsawade/specfem3d_globe/DATA/STATIONS file to /scratch/gpfs/lsawade/database/C071504C/CMT_SIMs/CMT_depth/DATA/STATIONS.
Copying file /scratch/gpfs/lsawade/specfem3d_globe/DATA/Par_file file to /scratch/gpfs/lsawade/database/C071504C/CMT_SIMs/CMT_depth/DATA/Par_file.
Copying file /scratch/gpfs/lsawade/specfem3d_globe/DATA/CMTSOLUTION file to /scratch/gpfs/lsawade/database/C071504C/CMT_SIMs/CMT_depth/DATA/CMTSOLUTION.
Copying directory /scratch/gpfs/lsawade/specfem3d_globe/OUTPUT_FILES file to /scratch/gpfs/lsawade/database/C071504C/CMT_SIMs/CMT_depth/OUTPUT_FILES
Writing YAML path file from waveform dir /scratch/gpfs/lsawade/database/C071504C/CMT_SIMs/CMT_depth/OUTPUT_FILES
Writing path file /scratch/gpfs/lsawade/database/C071504C/CMT_SIMs/CMT_depth/CMT_depth.yml.
Creating directory /scratch/gpfs/lsawade/database/C071504C/CMT_SIMs/CMT_lat.
Creating directory /scratch/gpfs/lsawade/database/C071504C/CMT_SIMs/CMT_lat/DATA.
Copying file /scratch/gpfs/lsawade/specfem3d_globe/DATA/STATIONS file to /scratch/gpfs/lsawade/database/C071504C/CMT_SIMs/CMT_lat/DATA/STATIONS.
Copying file /scratch/gpfs/lsawade/specfem3d_globe/DATA/Par_file file to /scratch/gpfs/lsawade/database/C071504C/CMT_SIMs/CMT_lat/DATA/Par_file.
Copying file /scratch/gpfs/lsawade/specfem3d_globe/DATA/CMTSOLUTION file to /scratch/gpfs/lsawade/database/C071504C/CMT_SIMs/CMT_lat/DATA/CMTSOLUTION.
Copying directory /scratch/gpfs/lsawade/specfem3d_globe/OUTPUT_FILES file to /scratch/gpfs/lsawade/database/C071504C/CMT_SIMs/CMT_lat/OUTPUT_FILES
Writing YAML path file from waveform dir /scratch/gpfs/lsawade/database/C071504C/CMT_SIMs/CMT_lat/OUTPUT_FILES
Writing path file /scratch/gpfs/lsawade/database/C071504C/CMT_SIMs/CMT_lat/CMT_lat.yml.
Creating directory /scratch/gpfs/lsawade/database/C071504C/CMT_SIMs/CMT_lon.
Creating directory /scratch/gpfs/lsawade/database/C071504C/CMT_SIMs/CMT_lon/DATA.
Copying file /scratch/gpfs/lsawade/specfem3d_globe/DATA/STATIONS file to /scratch/gpfs/lsawade/database/C071504C/CMT_SIMs/CMT_lon/DATA/STATIONS.
Copying file /scratch/gpfs/lsawade/specfem3d_globe/DATA/Par_file file to /scratch/gpfs/lsawade/database/C071504C/CMT_SIMs/CMT_lon/DATA/Par_file.
Copying file /scratch/gpfs/lsawade/specfem3d_globe/DATA/CMTSOLUTION file to /scratch/gpfs/lsawade/database/C071504C/CMT_SIMs/CMT_lon/DATA/CMTSOLUTION.
Copying directory /scratch/gpfs/lsawade/specfem3d_globe/OUTPUT_FILES file to /scratch/gpfs/lsawade/database/C071504C/CMT_SIMs/CMT_lon/OUTPUT_FILES
Writing YAML path file from waveform dir /scratch/gpfs/lsawade/database/C071504C/CMT_SIMs/CMT_lon/OUTPUT_FILES
Writing path file /scratch/gpfs/lsawade/database/C071504C/CMT_SIMs/CMT_lon/CMT_lon.yml.
Done.

Earthquake Parameters
--------------------------------------------------
Earthquake ID: 071504C
Origin Time: 2004-07-15T04:27:19.500000Z
Origin Latitude: -17.68
Origin Longitude: -178.52

Download Parameters:
--------------------------------------------------
Starttime: 2004-07-15T04:26:19.500000Z
Endtime: 2004-07-15T06:32:59.500000Z
Duration [s]: 7600
Channels: ['BHN', 'BHE', 'BHZ']
Locations: ['00']

Saving Parameters:
--------------------------------------------------
Output Directory: /tigress/lsawade/database/C071504C

Reading data selection from list file '/tigress/lsawade/database/C071504C/request.txt'
Received 7.3 KB of metadata in 0.4 seconds (18.5 KB/s)
Processed metadata for 297 channel epochs in 0.5 seconds
Received 47.2 MB of time series data in 56.4 seconds (856.1 KB/s) - written to /tigress/lsawade/database/C071504C/seismograms/obs/071504C.mseed
Received 245.2 KB of StationXML in 4.8 seconds (50.8 KB/s)
DONE at 2019-12-03 22:34:47

STATIONS FILE WRITTEN.

Submitted batch job 4066950
Inverting /tigress/lsawade/CMTS/cmt_to_be_run/C072504B

******** PACKAGE INFO ********************************
GCMT3D Location:_________________ /home/lsawade/GCMT3D
Workflow Directory:______________ /home/lsawade/GCMT3D/workflow
Slurmjob Directory:______________ /home/lsawade/GCMT3D/workflow/slurmwf
Bin directory (important):_______ /home/lsawade/GCMT3D/workflow/bins


******** DATABASE INFO *******************************
Database directory:______________ /tigress/lsawade/database


******** EARTHQUAKE INFO *****************************
CMTSOLUTION:_____________________ /tigress/lsawade/CMTS/cmt_to_be_run/C072504B
Earthquake ID:___________________ 072504B
Earthquake Directory:____________ /tigress/lsawade/database/C072504B
Earthquake File in Database:_____ /tigress/lsawade/database/C072504B/C072504B.cmt
Inversion Logging Directory:_____ /tigress/lsawade/database/C072504B/logs
Simulation Directory:____________ /tigress/lsawade/database/C072504B/CMT_SIMs
Process Path Directory:__________ /tigress/lsawade/database/C072504B/seismograms/process_paths
Window Path Directory:___________ /tigress/lsawade/database/C072504B/window_data/window_paths


Creating earthquake entry in database /scratch/gpfs/lsawade/database ... 
Creating directory /scratch/gpfs/lsawade/database/C072504B.
Copying file /tigress/lsawade/CMTS/cmt_to_be_run/C072504B file to /scratch/gpfs/lsawade/database/C072504B/C072504B.cmt.
Writing earthquake /tigress/lsawade/CMTS/cmt_to_be_run/C072504B file to /scratch/gpfs/lsawade/database/C072504B/C072504B.xml.
Creating directory /scratch/gpfs/lsawade/database/C072504B/station_data.
Creating directory /scratch/gpfs/lsawade/database/C072504B/logs.
Creating directory /scratch/gpfs/lsawade/database/C072504B/window_data.
Creating directory /scratch/gpfs/lsawade/database/C072504B/window_data/window_paths.
Creating directory /scratch/gpfs/lsawade/database/C072504B/seismograms.
Creating directory /scratch/gpfs/lsawade/database/C072504B/seismograms/syn.
Creating directory /scratch/gpfs/lsawade/database/C072504B/seismograms/obs.
Writing the YAML path file to /scratch/gpfs/lsawade/database/C072504B/seismograms/obs/observed.yml
Writing path file /scratch/gpfs/lsawade/database/C072504B/seismograms/obs/observed.yml.
Creating directory /scratch/gpfs/lsawade/database/C072504B/seismograms/process_paths.
Creating directory /scratch/gpfs/lsawade/database/C072504B/seismograms/processed_seismograms.
Creating directory /scratch/gpfs/lsawade/database/C072504B/inversion.
Creating directory /scratch/gpfs/lsawade/database/C072504B/inversion/inversion_dicts.
Creating directory /scratch/gpfs/lsawade/database/C072504B/inversion/inversion_output.
Creating directory /scratch/gpfs/lsawade/database/C072504B/inversion/inversion_output/new_synt.
Creating directory /scratch/gpfs/lsawade/database/C072504B/inversion/inversion_output/waveform_plots.
Creating directory /scratch/gpfs/lsawade/database/C072504B/CMT_SIMs.
Creating directory /scratch/gpfs/lsawade/database/C072504B/CMT_SIMs/CMT.
Creating directory /scratch/gpfs/lsawade/database/C072504B/CMT_SIMs/CMT/DATA.
Copying file /scratch/gpfs/lsawade/specfem3d_globe/DATA/STATIONS file to /scratch/gpfs/lsawade/database/C072504B/CMT_SIMs/CMT/DATA/STATIONS.
Copying file /scratch/gpfs/lsawade/specfem3d_globe/DATA/Par_file file to /scratch/gpfs/lsawade/database/C072504B/CMT_SIMs/CMT/DATA/Par_file.
Copying file /scratch/gpfs/lsawade/specfem3d_globe/DATA/CMTSOLUTION file to /scratch/gpfs/lsawade/database/C072504B/CMT_SIMs/CMT/DATA/CMTSOLUTION.
Copying directory /scratch/gpfs/lsawade/specfem3d_globe/OUTPUT_FILES file to /scratch/gpfs/lsawade/database/C072504B/CMT_SIMs/CMT/OUTPUT_FILES
Writing YAML path file from waveform dir /scratch/gpfs/lsawade/database/C072504B/CMT_SIMs/CMT/OUTPUT_FILES
Writing path file /scratch/gpfs/lsawade/database/C072504B/CMT_SIMs/CMT/CMT.yml.
Creating directory /scratch/gpfs/lsawade/database/C072504B/CMT_SIMs/CMT_rr.
Creating directory /scratch/gpfs/lsawade/database/C072504B/CMT_SIMs/CMT_rr/DATA.
Copying file /scratch/gpfs/lsawade/specfem3d_globe/DATA/STATIONS file to /scratch/gpfs/lsawade/database/C072504B/CMT_SIMs/CMT_rr/DATA/STATIONS.
Copying file /scratch/gpfs/lsawade/specfem3d_globe/DATA/Par_file file to /scratch/gpfs/lsawade/database/C072504B/CMT_SIMs/CMT_rr/DATA/Par_file.
Copying file /scratch/gpfs/lsawade/specfem3d_globe/DATA/CMTSOLUTION file to /scratch/gpfs/lsawade/database/C072504B/CMT_SIMs/CMT_rr/DATA/CMTSOLUTION.
Copying directory /scratch/gpfs/lsawade/specfem3d_globe/OUTPUT_FILES file to /scratch/gpfs/lsawade/database/C072504B/CMT_SIMs/CMT_rr/OUTPUT_FILES
Writing YAML path file from waveform dir /scratch/gpfs/lsawade/database/C072504B/CMT_SIMs/CMT_rr/OUTPUT_FILES
Writing path file /scratch/gpfs/lsawade/database/C072504B/CMT_SIMs/CMT_rr/CMT_rr.yml.
Creating directory /scratch/gpfs/lsawade/database/C072504B/CMT_SIMs/CMT_tt.
Creating directory /scratch/gpfs/lsawade/database/C072504B/CMT_SIMs/CMT_tt/DATA.
Copying file /scratch/gpfs/lsawade/specfem3d_globe/DATA/STATIONS file to /scratch/gpfs/lsawade/database/C072504B/CMT_SIMs/CMT_tt/DATA/STATIONS.
Copying file /scratch/gpfs/lsawade/specfem3d_globe/DATA/Par_file file to /scratch/gpfs/lsawade/database/C072504B/CMT_SIMs/CMT_tt/DATA/Par_file.
Copying file /scratch/gpfs/lsawade/specfem3d_globe/DATA/CMTSOLUTION file to /scratch/gpfs/lsawade/database/C072504B/CMT_SIMs/CMT_tt/DATA/CMTSOLUTION.
Copying directory /scratch/gpfs/lsawade/specfem3d_globe/OUTPUT_FILES file to /scratch/gpfs/lsawade/database/C072504B/CMT_SIMs/CMT_tt/OUTPUT_FILES
Writing YAML path file from waveform dir /scratch/gpfs/lsawade/database/C072504B/CMT_SIMs/CMT_tt/OUTPUT_FILES
Writing path file /scratch/gpfs/lsawade/database/C072504B/CMT_SIMs/CMT_tt/CMT_tt.yml.
Creating directory /scratch/gpfs/lsawade/database/C072504B/CMT_SIMs/CMT_pp.
Creating directory /scratch/gpfs/lsawade/database/C072504B/CMT_SIMs/CMT_pp/DATA.
Copying file /scratch/gpfs/lsawade/specfem3d_globe/DATA/STATIONS file to /scratch/gpfs/lsawade/database/C072504B/CMT_SIMs/CMT_pp/DATA/STATIONS.
Copying file /scratch/gpfs/lsawade/specfem3d_globe/DATA/Par_file file to /scratch/gpfs/lsawade/database/C072504B/CMT_SIMs/CMT_pp/DATA/Par_file.
Copying file /scratch/gpfs/lsawade/specfem3d_globe/DATA/CMTSOLUTION file to /scratch/gpfs/lsawade/database/C072504B/CMT_SIMs/CMT_pp/DATA/CMTSOLUTION.
Copying directory /scratch/gpfs/lsawade/specfem3d_globe/OUTPUT_FILES file to /scratch/gpfs/lsawade/database/C072504B/CMT_SIMs/CMT_pp/OUTPUT_FILES
Writing YAML path file from waveform dir /scratch/gpfs/lsawade/database/C072504B/CMT_SIMs/CMT_pp/OUTPUT_FILES
Writing path file /scratch/gpfs/lsawade/database/C072504B/CMT_SIMs/CMT_pp/CMT_pp.yml.
Creating directory /scratch/gpfs/lsawade/database/C072504B/CMT_SIMs/CMT_rt.
Creating directory /scratch/gpfs/lsawade/database/C072504B/CMT_SIMs/CMT_rt/DATA.
Copying file /scratch/gpfs/lsawade/specfem3d_globe/DATA/STATIONS file to /scratch/gpfs/lsawade/database/C072504B/CMT_SIMs/CMT_rt/DATA/STATIONS.
Copying file /scratch/gpfs/lsawade/specfem3d_globe/DATA/Par_file file to /scratch/gpfs/lsawade/database/C072504B/CMT_SIMs/CMT_rt/DATA/Par_file.
Copying file /scratch/gpfs/lsawade/specfem3d_globe/DATA/CMTSOLUTION file to /scratch/gpfs/lsawade/database/C072504B/CMT_SIMs/CMT_rt/DATA/CMTSOLUTION.
Copying directory /scratch/gpfs/lsawade/specfem3d_globe/OUTPUT_FILES file to /scratch/gpfs/lsawade/database/C072504B/CMT_SIMs/CMT_rt/OUTPUT_FILES
Writing YAML path file from waveform dir /scratch/gpfs/lsawade/database/C072504B/CMT_SIMs/CMT_rt/OUTPUT_FILES
Writing path file /scratch/gpfs/lsawade/database/C072504B/CMT_SIMs/CMT_rt/CMT_rt.yml.
Creating directory /scratch/gpfs/lsawade/database/C072504B/CMT_SIMs/CMT_rp.
Creating directory /scratch/gpfs/lsawade/database/C072504B/CMT_SIMs/CMT_rp/DATA.
Copying file /scratch/gpfs/lsawade/specfem3d_globe/DATA/STATIONS file to /scratch/gpfs/lsawade/database/C072504B/CMT_SIMs/CMT_rp/DATA/STATIONS.
Copying file /scratch/gpfs/lsawade/specfem3d_globe/DATA/Par_file file to /scratch/gpfs/lsawade/database/C072504B/CMT_SIMs/CMT_rp/DATA/Par_file.
Copying file /scratch/gpfs/lsawade/specfem3d_globe/DATA/CMTSOLUTION file to /scratch/gpfs/lsawade/database/C072504B/CMT_SIMs/CMT_rp/DATA/CMTSOLUTION.
Copying directory /scratch/gpfs/lsawade/specfem3d_globe/OUTPUT_FILES file to /scratch/gpfs/lsawade/database/C072504B/CMT_SIMs/CMT_rp/OUTPUT_FILES
Writing YAML path file from waveform dir /scratch/gpfs/lsawade/database/C072504B/CMT_SIMs/CMT_rp/OUTPUT_FILES
Writing path file /scratch/gpfs/lsawade/database/C072504B/CMT_SIMs/CMT_rp/CMT_rp.yml.
Creating directory /scratch/gpfs/lsawade/database/C072504B/CMT_SIMs/CMT_tp.
Creating directory /scratch/gpfs/lsawade/database/C072504B/CMT_SIMs/CMT_tp/DATA.
Copying file /scratch/gpfs/lsawade/specfem3d_globe/DATA/STATIONS file to /scratch/gpfs/lsawade/database/C072504B/CMT_SIMs/CMT_tp/DATA/STATIONS.
Copying file /scratch/gpfs/lsawade/specfem3d_globe/DATA/Par_file file to /scratch/gpfs/lsawade/database/C072504B/CMT_SIMs/CMT_tp/DATA/Par_file.
Copying file /scratch/gpfs/lsawade/specfem3d_globe/DATA/CMTSOLUTION file to /scratch/gpfs/lsawade/database/C072504B/CMT_SIMs/CMT_tp/DATA/CMTSOLUTION.
Copying directory /scratch/gpfs/lsawade/specfem3d_globe/OUTPUT_FILES file to /scratch/gpfs/lsawade/database/C072504B/CMT_SIMs/CMT_tp/OUTPUT_FILES
Writing YAML path file from waveform dir /scratch/gpfs/lsawade/database/C072504B/CMT_SIMs/CMT_tp/OUTPUT_FILES
Writing path file /scratch/gpfs/lsawade/database/C072504B/CMT_SIMs/CMT_tp/CMT_tp.yml.
Creating directory /scratch/gpfs/lsawade/database/C072504B/CMT_SIMs/CMT_depth.
Creating directory /scratch/gpfs/lsawade/database/C072504B/CMT_SIMs/CMT_depth/DATA.
Copying file /scratch/gpfs/lsawade/specfem3d_globe/DATA/STATIONS file to /scratch/gpfs/lsawade/database/C072504B/CMT_SIMs/CMT_depth/DATA/STATIONS.
Copying file /scratch/gpfs/lsawade/specfem3d_globe/DATA/Par_file file to /scratch/gpfs/lsawade/database/C072504B/CMT_SIMs/CMT_depth/DATA/Par_file.
Copying file /scratch/gpfs/lsawade/specfem3d_globe/DATA/CMTSOLUTION file to /scratch/gpfs/lsawade/database/C072504B/CMT_SIMs/CMT_depth/DATA/CMTSOLUTION.
Copying directory /scratch/gpfs/lsawade/specfem3d_globe/OUTPUT_FILES file to /scratch/gpfs/lsawade/database/C072504B/CMT_SIMs/CMT_depth/OUTPUT_FILES
Writing YAML path file from waveform dir /scratch/gpfs/lsawade/database/C072504B/CMT_SIMs/CMT_depth/OUTPUT_FILES
Writing path file /scratch/gpfs/lsawade/database/C072504B/CMT_SIMs/CMT_depth/CMT_depth.yml.
Creating directory /scratch/gpfs/lsawade/database/C072504B/CMT_SIMs/CMT_lat.
Creating directory /scratch/gpfs/lsawade/database/C072504B/CMT_SIMs/CMT_lat/DATA.
Copying file /scratch/gpfs/lsawade/specfem3d_globe/DATA/STATIONS file to /scratch/gpfs/lsawade/database/C072504B/CMT_SIMs/CMT_lat/DATA/STATIONS.
Copying file /scratch/gpfs/lsawade/specfem3d_globe/DATA/Par_file file to /scratch/gpfs/lsawade/database/C072504B/CMT_SIMs/CMT_lat/DATA/Par_file.
Copying file /scratch/gpfs/lsawade/specfem3d_globe/DATA/CMTSOLUTION file to /scratch/gpfs/lsawade/database/C072504B/CMT_SIMs/CMT_lat/DATA/CMTSOLUTION.
Copying directory /scratch/gpfs/lsawade/specfem3d_globe/OUTPUT_FILES file to /scratch/gpfs/lsawade/database/C072504B/CMT_SIMs/CMT_lat/OUTPUT_FILES
Writing YAML path file from waveform dir /scratch/gpfs/lsawade/database/C072504B/CMT_SIMs/CMT_lat/OUTPUT_FILES
Writing path file /scratch/gpfs/lsawade/database/C072504B/CMT_SIMs/CMT_lat/CMT_lat.yml.
Creating directory /scratch/gpfs/lsawade/database/C072504B/CMT_SIMs/CMT_lon.
Creating directory /scratch/gpfs/lsawade/database/C072504B/CMT_SIMs/CMT_lon/DATA.
Copying file /scratch/gpfs/lsawade/specfem3d_globe/DATA/STATIONS file to /scratch/gpfs/lsawade/database/C072504B/CMT_SIMs/CMT_lon/DATA/STATIONS.
Copying file /scratch/gpfs/lsawade/specfem3d_globe/DATA/Par_file file to /scratch/gpfs/lsawade/database/C072504B/CMT_SIMs/CMT_lon/DATA/Par_file.
Copying file /scratch/gpfs/lsawade/specfem3d_globe/DATA/CMTSOLUTION file to /scratch/gpfs/lsawade/database/C072504B/CMT_SIMs/CMT_lon/DATA/CMTSOLUTION.
Copying directory /scratch/gpfs/lsawade/specfem3d_globe/OUTPUT_FILES file to /scratch/gpfs/lsawade/database/C072504B/CMT_SIMs/CMT_lon/OUTPUT_FILES
Writing YAML path file from waveform dir /scratch/gpfs/lsawade/database/C072504B/CMT_SIMs/CMT_lon/OUTPUT_FILES
Writing path file /scratch/gpfs/lsawade/database/C072504B/CMT_SIMs/CMT_lon/CMT_lon.yml.
Done.

Earthquake Parameters
--------------------------------------------------
Earthquake ID: 072504B
Origin Time: 2004-07-25T14:35:25.420000Z
Origin Latitude: -2.68
Origin Longitude: 104.38

Download Parameters:
--------------------------------------------------
Starttime: 2004-07-25T14:34:25.420000Z
Endtime: 2004-07-25T16:41:05.420000Z
Duration [s]: 7600
Channels: ['BHN', 'BHE', 'BHZ']
Locations: ['00']

Saving Parameters:
--------------------------------------------------
Output Directory: /tigress/lsawade/database/C072504B

Reading data selection from list file '/tigress/lsawade/database/C072504B/request.txt'
Received 7.3 KB of metadata in 0.4 seconds (16.6 KB/s)
Processed metadata for 297 channel epochs in 0.5 seconds
Received 48.9 MB of time series data in 50.7 seconds (987.3 KB/s) - written to /tigress/lsawade/database/C072504B/seismograms/obs/072504B.mseed
Received 245.2 KB of StationXML in 4.6 seconds (53.3 KB/s)
DONE at 2019-12-03 22:36:14

STATIONS FILE WRITTEN.

Submitted batch job 4066955
Inverting /tigress/lsawade/CMTS/cmt_to_be_run/C090504A

******** PACKAGE INFO ********************************
GCMT3D Location:_________________ /home/lsawade/GCMT3D
Workflow Directory:______________ /home/lsawade/GCMT3D/workflow
Slurmjob Directory:______________ /home/lsawade/GCMT3D/workflow/slurmwf
Bin directory (important):_______ /home/lsawade/GCMT3D/workflow/bins


******** DATABASE INFO *******************************
Database directory:______________ /tigress/lsawade/database


******** EARTHQUAKE INFO *****************************
CMTSOLUTION:_____________________ /tigress/lsawade/CMTS/cmt_to_be_run/C090504A
Earthquake ID:___________________ 090504A
Earthquake Directory:____________ /tigress/lsawade/database/C090504A
Earthquake File in Database:_____ /tigress/lsawade/database/C090504A/C090504A.cmt
Inversion Logging Directory:_____ /tigress/lsawade/database/C090504A/logs
Simulation Directory:____________ /tigress/lsawade/database/C090504A/CMT_SIMs
Process Path Directory:__________ /tigress/lsawade/database/C090504A/seismograms/process_paths
Window Path Directory:___________ /tigress/lsawade/database/C090504A/window_data/window_paths


Creating earthquake entry in database /scratch/gpfs/lsawade/database ... 
Creating directory /scratch/gpfs/lsawade/database/C090504A.
Copying file /tigress/lsawade/CMTS/cmt_to_be_run/C090504A file to /scratch/gpfs/lsawade/database/C090504A/C090504A.cmt.
Writing earthquake /tigress/lsawade/CMTS/cmt_to_be_run/C090504A file to /scratch/gpfs/lsawade/database/C090504A/C090504A.xml.
Creating directory /scratch/gpfs/lsawade/database/C090504A/station_data.
Creating directory /scratch/gpfs/lsawade/database/C090504A/logs.
Creating directory /scratch/gpfs/lsawade/database/C090504A/window_data.
Creating directory /scratch/gpfs/lsawade/database/C090504A/window_data/window_paths.
Creating directory /scratch/gpfs/lsawade/database/C090504A/seismograms.
Creating directory /scratch/gpfs/lsawade/database/C090504A/seismograms/syn.
Creating directory /scratch/gpfs/lsawade/database/C090504A/seismograms/obs.
Writing the YAML path file to /scratch/gpfs/lsawade/database/C090504A/seismograms/obs/observed.yml
Writing path file /scratch/gpfs/lsawade/database/C090504A/seismograms/obs/observed.yml.
Creating directory /scratch/gpfs/lsawade/database/C090504A/seismograms/process_paths.
Creating directory /scratch/gpfs/lsawade/database/C090504A/seismograms/processed_seismograms.
Creating directory /scratch/gpfs/lsawade/database/C090504A/inversion.
Creating directory /scratch/gpfs/lsawade/database/C090504A/inversion/inversion_dicts.
Creating directory /scratch/gpfs/lsawade/database/C090504A/inversion/inversion_output.
Creating directory /scratch/gpfs/lsawade/database/C090504A/inversion/inversion_output/new_synt.
Creating directory /scratch/gpfs/lsawade/database/C090504A/inversion/inversion_output/waveform_plots.
Creating directory /scratch/gpfs/lsawade/database/C090504A/CMT_SIMs.
Creating directory /scratch/gpfs/lsawade/database/C090504A/CMT_SIMs/CMT.
Creating directory /scratch/gpfs/lsawade/database/C090504A/CMT_SIMs/CMT/DATA.
Copying file /scratch/gpfs/lsawade/specfem3d_globe/DATA/STATIONS file to /scratch/gpfs/lsawade/database/C090504A/CMT_SIMs/CMT/DATA/STATIONS.
Copying file /scratch/gpfs/lsawade/specfem3d_globe/DATA/Par_file file to /scratch/gpfs/lsawade/database/C090504A/CMT_SIMs/CMT/DATA/Par_file.
Copying file /scratch/gpfs/lsawade/specfem3d_globe/DATA/CMTSOLUTION file to /scratch/gpfs/lsawade/database/C090504A/CMT_SIMs/CMT/DATA/CMTSOLUTION.
Copying directory /scratch/gpfs/lsawade/specfem3d_globe/OUTPUT_FILES file to /scratch/gpfs/lsawade/database/C090504A/CMT_SIMs/CMT/OUTPUT_FILES
Writing YAML path file from waveform dir /scratch/gpfs/lsawade/database/C090504A/CMT_SIMs/CMT/OUTPUT_FILES
Writing path file /scratch/gpfs/lsawade/database/C090504A/CMT_SIMs/CMT/CMT.yml.
Creating directory /scratch/gpfs/lsawade/database/C090504A/CMT_SIMs/CMT_rr.
Creating directory /scratch/gpfs/lsawade/database/C090504A/CMT_SIMs/CMT_rr/DATA.
Copying file /scratch/gpfs/lsawade/specfem3d_globe/DATA/STATIONS file to /scratch/gpfs/lsawade/database/C090504A/CMT_SIMs/CMT_rr/DATA/STATIONS.
Copying file /scratch/gpfs/lsawade/specfem3d_globe/DATA/Par_file file to /scratch/gpfs/lsawade/database/C090504A/CMT_SIMs/CMT_rr/DATA/Par_file.
Copying file /scratch/gpfs/lsawade/specfem3d_globe/DATA/CMTSOLUTION file to /scratch/gpfs/lsawade/database/C090504A/CMT_SIMs/CMT_rr/DATA/CMTSOLUTION.
Copying directory /scratch/gpfs/lsawade/specfem3d_globe/OUTPUT_FILES file to /scratch/gpfs/lsawade/database/C090504A/CMT_SIMs/CMT_rr/OUTPUT_FILES
Writing YAML path file from waveform dir /scratch/gpfs/lsawade/database/C090504A/CMT_SIMs/CMT_rr/OUTPUT_FILES
Writing path file /scratch/gpfs/lsawade/database/C090504A/CMT_SIMs/CMT_rr/CMT_rr.yml.
Creating directory /scratch/gpfs/lsawade/database/C090504A/CMT_SIMs/CMT_tt.
Creating directory /scratch/gpfs/lsawade/database/C090504A/CMT_SIMs/CMT_tt/DATA.
Copying file /scratch/gpfs/lsawade/specfem3d_globe/DATA/STATIONS file to /scratch/gpfs/lsawade/database/C090504A/CMT_SIMs/CMT_tt/DATA/STATIONS.
Copying file /scratch/gpfs/lsawade/specfem3d_globe/DATA/Par_file file to /scratch/gpfs/lsawade/database/C090504A/CMT_SIMs/CMT_tt/DATA/Par_file.
Copying file /scratch/gpfs/lsawade/specfem3d_globe/DATA/CMTSOLUTION file to /scratch/gpfs/lsawade/database/C090504A/CMT_SIMs/CMT_tt/DATA/CMTSOLUTION.
Copying directory /scratch/gpfs/lsawade/specfem3d_globe/OUTPUT_FILES file to /scratch/gpfs/lsawade/database/C090504A/CMT_SIMs/CMT_tt/OUTPUT_FILES
Writing YAML path file from waveform dir /scratch/gpfs/lsawade/database/C090504A/CMT_SIMs/CMT_tt/OUTPUT_FILES
Writing path file /scratch/gpfs/lsawade/database/C090504A/CMT_SIMs/CMT_tt/CMT_tt.yml.
Creating directory /scratch/gpfs/lsawade/database/C090504A/CMT_SIMs/CMT_pp.
Creating directory /scratch/gpfs/lsawade/database/C090504A/CMT_SIMs/CMT_pp/DATA.
Copying file /scratch/gpfs/lsawade/specfem3d_globe/DATA/STATIONS file to /scratch/gpfs/lsawade/database/C090504A/CMT_SIMs/CMT_pp/DATA/STATIONS.
Copying file /scratch/gpfs/lsawade/specfem3d_globe/DATA/Par_file file to /scratch/gpfs/lsawade/database/C090504A/CMT_SIMs/CMT_pp/DATA/Par_file.
Copying file /scratch/gpfs/lsawade/specfem3d_globe/DATA/CMTSOLUTION file to /scratch/gpfs/lsawade/database/C090504A/CMT_SIMs/CMT_pp/DATA/CMTSOLUTION.
Copying directory /scratch/gpfs/lsawade/specfem3d_globe/OUTPUT_FILES file to /scratch/gpfs/lsawade/database/C090504A/CMT_SIMs/CMT_pp/OUTPUT_FILES
Writing YAML path file from waveform dir /scratch/gpfs/lsawade/database/C090504A/CMT_SIMs/CMT_pp/OUTPUT_FILES
Writing path file /scratch/gpfs/lsawade/database/C090504A/CMT_SIMs/CMT_pp/CMT_pp.yml.
Creating directory /scratch/gpfs/lsawade/database/C090504A/CMT_SIMs/CMT_rt.
Creating directory /scratch/gpfs/lsawade/database/C090504A/CMT_SIMs/CMT_rt/DATA.
Copying file /scratch/gpfs/lsawade/specfem3d_globe/DATA/STATIONS file to /scratch/gpfs/lsawade/database/C090504A/CMT_SIMs/CMT_rt/DATA/STATIONS.
Copying file /scratch/gpfs/lsawade/specfem3d_globe/DATA/Par_file file to /scratch/gpfs/lsawade/database/C090504A/CMT_SIMs/CMT_rt/DATA/Par_file.
Copying file /scratch/gpfs/lsawade/specfem3d_globe/DATA/CMTSOLUTION file to /scratch/gpfs/lsawade/database/C090504A/CMT_SIMs/CMT_rt/DATA/CMTSOLUTION.
Copying directory /scratch/gpfs/lsawade/specfem3d_globe/OUTPUT_FILES file to /scratch/gpfs/lsawade/database/C090504A/CMT_SIMs/CMT_rt/OUTPUT_FILES
Writing YAML path file from waveform dir /scratch/gpfs/lsawade/database/C090504A/CMT_SIMs/CMT_rt/OUTPUT_FILES
Writing path file /scratch/gpfs/lsawade/database/C090504A/CMT_SIMs/CMT_rt/CMT_rt.yml.
Creating directory /scratch/gpfs/lsawade/database/C090504A/CMT_SIMs/CMT_rp.
Creating directory /scratch/gpfs/lsawade/database/C090504A/CMT_SIMs/CMT_rp/DATA.
Copying file /scratch/gpfs/lsawade/specfem3d_globe/DATA/STATIONS file to /scratch/gpfs/lsawade/database/C090504A/CMT_SIMs/CMT_rp/DATA/STATIONS.
Copying file /scratch/gpfs/lsawade/specfem3d_globe/DATA/Par_file file to /scratch/gpfs/lsawade/database/C090504A/CMT_SIMs/CMT_rp/DATA/Par_file.
Copying file /scratch/gpfs/lsawade/specfem3d_globe/DATA/CMTSOLUTION file to /scratch/gpfs/lsawade/database/C090504A/CMT_SIMs/CMT_rp/DATA/CMTSOLUTION.
Copying directory /scratch/gpfs/lsawade/specfem3d_globe/OUTPUT_FILES file to /scratch/gpfs/lsawade/database/C090504A/CMT_SIMs/CMT_rp/OUTPUT_FILES
Writing YAML path file from waveform dir /scratch/gpfs/lsawade/database/C090504A/CMT_SIMs/CMT_rp/OUTPUT_FILES
Writing path file /scratch/gpfs/lsawade/database/C090504A/CMT_SIMs/CMT_rp/CMT_rp.yml.
Creating directory /scratch/gpfs/lsawade/database/C090504A/CMT_SIMs/CMT_tp.
Creating directory /scratch/gpfs/lsawade/database/C090504A/CMT_SIMs/CMT_tp/DATA.
Copying file /scratch/gpfs/lsawade/specfem3d_globe/DATA/STATIONS file to /scratch/gpfs/lsawade/database/C090504A/CMT_SIMs/CMT_tp/DATA/STATIONS.
Copying file /scratch/gpfs/lsawade/specfem3d_globe/DATA/Par_file file to /scratch/gpfs/lsawade/database/C090504A/CMT_SIMs/CMT_tp/DATA/Par_file.
Copying file /scratch/gpfs/lsawade/specfem3d_globe/DATA/CMTSOLUTION file to /scratch/gpfs/lsawade/database/C090504A/CMT_SIMs/CMT_tp/DATA/CMTSOLUTION.
Copying directory /scratch/gpfs/lsawade/specfem3d_globe/OUTPUT_FILES file to /scratch/gpfs/lsawade/database/C090504A/CMT_SIMs/CMT_tp/OUTPUT_FILES
Writing YAML path file from waveform dir /scratch/gpfs/lsawade/database/C090504A/CMT_SIMs/CMT_tp/OUTPUT_FILES
Writing path file /scratch/gpfs/lsawade/database/C090504A/CMT_SIMs/CMT_tp/CMT_tp.yml.
Creating directory /scratch/gpfs/lsawade/database/C090504A/CMT_SIMs/CMT_depth.
Creating directory /scratch/gpfs/lsawade/database/C090504A/CMT_SIMs/CMT_depth/DATA.
Copying file /scratch/gpfs/lsawade/specfem3d_globe/DATA/STATIONS file to /scratch/gpfs/lsawade/database/C090504A/CMT_SIMs/CMT_depth/DATA/STATIONS.
Copying file /scratch/gpfs/lsawade/specfem3d_globe/DATA/Par_file file to /scratch/gpfs/lsawade/database/C090504A/CMT_SIMs/CMT_depth/DATA/Par_file.
Copying file /scratch/gpfs/lsawade/specfem3d_globe/DATA/CMTSOLUTION file to /scratch/gpfs/lsawade/database/C090504A/CMT_SIMs/CMT_depth/DATA/CMTSOLUTION.
Copying directory /scratch/gpfs/lsawade/specfem3d_globe/OUTPUT_FILES file to /scratch/gpfs/lsawade/database/C090504A/CMT_SIMs/CMT_depth/OUTPUT_FILES
Writing YAML path file from waveform dir /scratch/gpfs/lsawade/database/C090504A/CMT_SIMs/CMT_depth/OUTPUT_FILES
Writing path file /scratch/gpfs/lsawade/database/C090504A/CMT_SIMs/CMT_depth/CMT_depth.yml.
Creating directory /scratch/gpfs/lsawade/database/C090504A/CMT_SIMs/CMT_lat.
Creating directory /scratch/gpfs/lsawade/database/C090504A/CMT_SIMs/CMT_lat/DATA.
Copying file /scratch/gpfs/lsawade/specfem3d_globe/DATA/STATIONS file to /scratch/gpfs/lsawade/database/C090504A/CMT_SIMs/CMT_lat/DATA/STATIONS.
Copying file /scratch/gpfs/lsawade/specfem3d_globe/DATA/Par_file file to /scratch/gpfs/lsawade/database/C090504A/CMT_SIMs/CMT_lat/DATA/Par_file.
Copying file /scratch/gpfs/lsawade/specfem3d_globe/DATA/CMTSOLUTION file to /scratch/gpfs/lsawade/database/C090504A/CMT_SIMs/CMT_lat/DATA/CMTSOLUTION.
Copying directory /scratch/gpfs/lsawade/specfem3d_globe/OUTPUT_FILES file to /scratch/gpfs/lsawade/database/C090504A/CMT_SIMs/CMT_lat/OUTPUT_FILES
Writing YAML path file from waveform dir /scratch/gpfs/lsawade/database/C090504A/CMT_SIMs/CMT_lat/OUTPUT_FILES
Writing path file /scratch/gpfs/lsawade/database/C090504A/CMT_SIMs/CMT_lat/CMT_lat.yml.
Creating directory /scratch/gpfs/lsawade/database/C090504A/CMT_SIMs/CMT_lon.
Creating directory /scratch/gpfs/lsawade/database/C090504A/CMT_SIMs/CMT_lon/DATA.
Copying file /scratch/gpfs/lsawade/specfem3d_globe/DATA/STATIONS file to /scratch/gpfs/lsawade/database/C090504A/CMT_SIMs/CMT_lon/DATA/STATIONS.
Copying file /scratch/gpfs/lsawade/specfem3d_globe/DATA/Par_file file to /scratch/gpfs/lsawade/database/C090504A/CMT_SIMs/CMT_lon/DATA/Par_file.
Copying file /scratch/gpfs/lsawade/specfem3d_globe/DATA/CMTSOLUTION file to /scratch/gpfs/lsawade/database/C090504A/CMT_SIMs/CMT_lon/DATA/CMTSOLUTION.
Copying directory /scratch/gpfs/lsawade/specfem3d_globe/OUTPUT_FILES file to /scratch/gpfs/lsawade/database/C090504A/CMT_SIMs/CMT_lon/OUTPUT_FILES
Writing YAML path file from waveform dir /scratch/gpfs/lsawade/database/C090504A/CMT_SIMs/CMT_lon/OUTPUT_FILES
Writing path file /scratch/gpfs/lsawade/database/C090504A/CMT_SIMs/CMT_lon/CMT_lon.yml.
Done.

Earthquake Parameters
--------------------------------------------------
Earthquake ID: 090504A
Origin Time: 2004-09-05T10:07:15.970000Z
Origin Latitude: 32.94
Origin Longitude: 137.0

Download Parameters:
--------------------------------------------------
Starttime: 2004-09-05T10:06:15.970000Z
Endtime: 2004-09-05T12:12:55.970000Z
Duration [s]: 7600
Channels: ['BHN', 'BHE', 'BHZ']
Locations: ['00']

Saving Parameters:
--------------------------------------------------
Output Directory: /tigress/lsawade/database/C090504A

Reading data selection from list file '/tigress/lsawade/database/C090504A/request.txt'
Received 7.4 KB of metadata in 0.4 seconds (17.5 KB/s)
Processed metadata for 298 channel epochs in 0.5 seconds
Received 53.4 MB of time series data in 54.5 seconds (1.0 MB/s) - written to /tigress/lsawade/database/C090504A/seismograms/obs/090504A.mseed
Received 251.5 KB of StationXML in 4.7 seconds (53.3 KB/s)
DONE at 2019-12-03 22:37:18

[...]
/scratch/gpfs/lsawade/database/C201007232251A/CMT_SIMs/CMT_rt/DATA exists already. Not overwritten.
File /scratch/gpfs/lsawade/database/C201007232251A/CMT_SIMs/CMT_rt/DATA/STATIONS exists already. It will NOT be overwritten.
File /scratch/gpfs/lsawade/database/C201007232251A/CMT_SIMs/CMT_rt/DATA/Par_file exists already. It will NOT be overwritten.
File /scratch/gpfs/lsawade/database/C201007232251A/CMT_SIMs/CMT_rt/DATA/CMTSOLUTION exists already. It will NOT be overwritten.
Directory /scratch/gpfs/lsawade/database/C201007232251A/CMT_SIMs/CMT_rt/OUTPUT_FILES exists already. It will NOT be overwritten.
Writing YAML path file from waveform dir /scratch/gpfs/lsawade/database/C201007232251A/CMT_SIMs/CMT_rt/OUTPUT_FILES
Writing path file /scratch/gpfs/lsawade/database/C201007232251A/CMT_SIMs/CMT_rt/CMT_rt.yml.
/scratch/gpfs/lsawade/database/C201007232251A/CMT_SIMs/CMT_rp exists already. Not overwritten.
/scratch/gpfs/lsawade/database/C201007232251A/CMT_SIMs/CMT_rp/DATA exists already. Not overwritten.
File /scratch/gpfs/lsawade/database/C201007232251A/CMT_SIMs/CMT_rp/DATA/STATIONS exists already. It will NOT be overwritten.
File /scratch/gpfs/lsawade/database/C201007232251A/CMT_SIMs/CMT_rp/DATA/Par_file exists already. It will NOT be overwritten.
File /scratch/gpfs/lsawade/database/C201007232251A/CMT_SIMs/CMT_rp/DATA/CMTSOLUTION exists already. It will NOT be overwritten.
Directory /scratch/gpfs/lsawade/database/C201007232251A/CMT_SIMs/CMT_rp/OUTPUT_FILES exists already. It will NOT be overwritten.
Writing YAML path file from waveform dir /scratch/gpfs/lsawade/database/C201007232251A/CMT_SIMs/CMT_rp/OUTPUT_FILES
Writing path file /scratch/gpfs/lsawade/database/C201007232251A/CMT_SIMs/CMT_rp/CMT_rp.yml.
/scratch/gpfs/lsawade/database/C201007232251A/CMT_SIMs/CMT_tp exists already. Not overwritten.
/scratch/gpfs/lsawade/database/C201007232251A/CMT_SIMs/CMT_tp/DATA exists already. Not overwritten.
File /scratch/gpfs/lsawade/database/C201007232251A/CMT_SIMs/CMT_tp/DATA/STATIONS exists already. It will NOT be overwritten.
File /scratch/gpfs/lsawade/database/C201007232251A/CMT_SIMs/CMT_tp/DATA/Par_file exists already. It will NOT be overwritten.
File /scratch/gpfs/lsawade/database/C201007232251A/CMT_SIMs/CMT_tp/DATA/CMTSOLUTION exists already. It will NOT be overwritten.
Directory /scratch/gpfs/lsawade/database/C201007232251A/CMT_SIMs/CMT_tp/OUTPUT_FILES exists already. It will NOT be overwritten.
Writing YAML path file from waveform dir /scratch/gpfs/lsawade/database/C201007232251A/CMT_SIMs/CMT_tp/OUTPUT_FILES
Writing path file /scratch/gpfs/lsawade/database/C201007232251A/CMT_SIMs/CMT_tp/CMT_tp.yml.
/scratch/gpfs/lsawade/database/C201007232251A/CMT_SIMs/CMT_depth exists already. Not overwritten.
/scratch/gpfs/lsawade/database/C201007232251A/CMT_SIMs/CMT_depth/DATA exists already. Not overwritten.
File /scratch/gpfs/lsawade/database/C201007232251A/CMT_SIMs/CMT_depth/DATA/STATIONS exists already. It will NOT be overwritten.
File /scratch/gpfs/lsawade/database/C201007232251A/CMT_SIMs/CMT_depth/DATA/Par_file exists already. It will NOT be overwritten.
File /scratch/gpfs/lsawade/database/C201007232251A/CMT_SIMs/CMT_depth/DATA/CMTSOLUTION exists already. It will NOT be overwritten.
Directory /scratch/gpfs/lsawade/database/C201007232251A/CMT_SIMs/CMT_depth/OUTPUT_FILES exists already. It will NOT be overwritten.
Writing YAML path file from waveform dir /scratch/gpfs/lsawade/database/C201007232251A/CMT_SIMs/CMT_depth/OUTPUT_FILES
Writing path file /scratch/gpfs/lsawade/database/C201007232251A/CMT_SIMs/CMT_depth/CMT_depth.yml.
/scratch/gpfs/lsawade/database/C201007232251A/CMT_SIMs/CMT_lat exists already. Not overwritten.
/scratch/gpfs/lsawade/database/C201007232251A/CMT_SIMs/CMT_lat/DATA exists already. Not overwritten.
File /scratch/gpfs/lsawade/database/C201007232251A/CMT_SIMs/CMT_lat/DATA/STATIONS exists already. It will NOT be overwritten.
File /scratch/gpfs/lsawade/database/C201007232251A/CMT_SIMs/CMT_lat/DATA/Par_file exists already. It will NOT be overwritten.
File /scratch/gpfs/lsawade/database/C201007232251A/CMT_SIMs/CMT_lat/DATA/CMTSOLUTION exists already. It will NOT be overwritten.
Directory /scratch/gpfs/lsawade/database/C201007232251A/CMT_SIMs/CMT_lat/OUTPUT_FILES exists already. It will NOT be overwritten.
Writing YAML path file from waveform dir /scratch/gpfs/lsawade/database/C201007232251A/CMT_SIMs/CMT_lat/OUTPUT_FILES
Writing path file /scratch/gpfs/lsawade/database/C201007232251A/CMT_SIMs/CMT_lat/CMT_lat.yml.
/scratch/gpfs/lsawade/database/C201007232251A/CMT_SIMs/CMT_lon exists already. Not overwritten.
/scratch/gpfs/lsawade/database/C201007232251A/CMT_SIMs/CMT_lon/DATA exists already. Not overwritten.
File /scratch/gpfs/lsawade/database/C201007232251A/CMT_SIMs/CMT_lon/DATA/STATIONS exists already. It will NOT be overwritten.
File /scratch/gpfs/lsawade/database/C201007232251A/CMT_SIMs/CMT_lon/DATA/Par_file exists already. It will NOT be overwritten.
File /scratch/gpfs/lsawade/database/C201007232251A/CMT_SIMs/CMT_lon/DATA/CMTSOLUTION exists already. It will NOT be overwritten.
Directory /scratch/gpfs/lsawade/database/C201007232251A/CMT_SIMs/CMT_lon/OUTPUT_FILES exists already. It will NOT be overwritten.
Writing YAML path file from waveform dir /scratch/gpfs/lsawade/database/C201007232251A/CMT_SIMs/CMT_lon/OUTPUT_FILES
Writing path file /scratch/gpfs/lsawade/database/C201007232251A/CMT_SIMs/CMT_lon/CMT_lon.yml.
Done.

Earthquake Parameters
--------------------------------------------------
Earthquake ID: 201007232251A
Origin Time: 2010-07-23T22:51:20.700000Z
Origin Latitude: 6.62
Origin Longitude: 123.9

Download Parameters:
--------------------------------------------------
Starttime: 2010-07-23T22:50:20.700000Z
Endtime: 2010-07-24T00:57:00.700000Z
Duration [s]: 7600
Channels: ['BHN', 'BHE', 'BHZ']
Locations: ['00']

Saving Parameters:
--------------------------------------------------
Output Directory: /tigress/lsawade/database/C201007232251A

Reading data selection from list file '/tigress/lsawade/database/C201007232251A/request.txt'
Received 7.8 KB of metadata in 0.4 seconds (19.8 KB/s)
Processed metadata for 276 channel epochs in 0.5 seconds
Received 73.9 MB of time series data in 66.0 seconds (1.1 MB/s) - written to /tigress/lsawade/database/C201007232251A/seismograms/obs/201007232251A.mseed
Received 228.0 KB of StationXML in 3.9 seconds (58.5 KB/s)
DONE at 2019-12-04 00:23:43

STATIONS FILE WRITTEN.

Submitted batch job 4069412
Inverting /tigress/lsawade/CMTS/cmt_to_be_run/C201007232315A

******** PACKAGE INFO ********************************
GCMT3D Location:_________________ /home/lsawade/GCMT3D
Workflow Directory:______________ /home/lsawade/GCMT3D/workflow
Slurmjob Directory:______________ /home/lsawade/GCMT3D/workflow/slurmwf
Bin directory (important):_______ /home/lsawade/GCMT3D/workflow/bins


******** DATABASE INFO *******************************
Database directory:______________ /tigress/lsawade/database


******** EARTHQUAKE INFO *****************************
CMTSOLUTION:_____________________ /tigress/lsawade/CMTS/cmt_to_be_run/C201007232315A
Earthquake ID:___________________ 201007232315A
Earthquake Directory:____________ /tigress/lsawade/database/C201007232315A
Earthquake File in Database:_____ /tigress/lsawade/database/C201007232315A/C201007232315A.cmt
Inversion Logging Directory:_____ /tigress/lsawade/database/C201007232315A/logs
Simulation Directory:____________ /tigress/lsawade/database/C201007232315A/CMT_SIMs
Process Path Directory:__________ /tigress/lsawade/database/C201007232315A/seismograms/process_paths
Window Path Directory:___________ /tigress/lsawade/database/C201007232315A/window_data/window_paths


Creating earthquake entry in database /scratch/gpfs/lsawade/database ... 
/scratch/gpfs/lsawade/database/C201007232315A exists already. Not overwritten.
File /scratch/gpfs/lsawade/database/C201007232315A/C201007232315A.cmt exists already. It will NOT be overwritten.
Earthquake file /scratch/gpfs/lsawade/database/C201007232315A/C201007232315A.xml exists already. It will NOT be overwritten.
/scratch/gpfs/lsawade/database/C201007232315A/station_data exists already. Not overwritten.
/scratch/gpfs/lsawade/database/C201007232315A/logs exists already. Not overwritten.
/scratch/gpfs/lsawade/database/C201007232315A/window_data exists already. Not overwritten.
/scratch/gpfs/lsawade/database/C201007232315A/window_data/window_paths exists already. Not overwritten.
/scratch/gpfs/lsawade/database/C201007232315A/seismograms exists already. Not overwritten.
/scratch/gpfs/lsawade/database/C201007232315A/seismograms/syn exists already. Not overwritten.
/scratch/gpfs/lsawade/database/C201007232315A/seismograms/obs exists already. Not overwritten.
Writing the YAML path file to /scratch/gpfs/lsawade/database/C201007232315A/seismograms/obs/observed.yml
Writing path file /scratch/gpfs/lsawade/database/C201007232315A/seismograms/obs/observed.yml.
/scratch/gpfs/lsawade/database/C201007232315A/seismograms/process_paths exists already. Not overwritten.
/scratch/gpfs/lsawade/database/C201007232315A/seismograms/processed_seismograms exists already. Not overwritten.
/scratch/gpfs/lsawade/database/C201007232315A/inversion exists already. Not overwritten.
/scratch/gpfs/lsawade/database/C201007232315A/inversion/inversion_dicts exists already. Not overwritten.
/scratch/gpfs/lsawade/database/C201007232315A/inversion/inversion_output exists already. Not overwritten.
/scratch/gpfs/lsawade/database/C201007232315A/inversion/inversion_output/new_synt exists already. Not overwritten.
/scratch/gpfs/lsawade/database/C201007232315A/inversion/inversion_output/waveform_plots exists already. Not overwritten.
/scratch/gpfs/lsawade/database/C201007232315A/CMT_SIMs exists already. Not overwritten.
/scratch/gpfs/lsawade/database/C201007232315A/CMT_SIMs/CMT exists already. Not overwritten.
/scratch/gpfs/lsawade/database/C201007232315A/CMT_SIMs/CMT/DATA exists already. Not overwritten.
File /scratch/gpfs/lsawade/database/C201007232315A/CMT_SIMs/CMT/DATA/STATIONS exists already. It will NOT be overwritten.
File /scratch/gpfs/lsawade/database/C201007232315A/CMT_SIMs/CMT/DATA/Par_file exists already. It will NOT be overwritten.
File /scratch/gpfs/lsawade/database/C201007232315A/CMT_SIMs/CMT/DATA/CMTSOLUTION exists already. It will NOT be overwritten.
Directory /scratch/gpfs/lsawade/database/C201007232315A/CMT_SIMs/CMT/OUTPUT_FILES exists already. It will NOT be overwritten.
Writing YAML path file from waveform dir /scratch/gpfs/lsawade/database/C201007232315A/CMT_SIMs/CMT/OUTPUT_FILES
Writing path file /scratch/gpfs/lsawade/database/C201007232315A/CMT_SIMs/CMT/CMT.yml.
/scratch/gpfs/lsawade/database/C201007232315A/CMT_SIMs/CMT_rr exists already. Not overwritten.
/scratch/gpfs/lsawade/database/C201007232315A/CMT_SIMs/CMT_rr/DATA exists already. Not overwritten.
File /scratch/gpfs/lsawade/database/C201007232315A/CMT_SIMs/CMT_rr/DATA/STATIONS exists already. It will NOT be overwritten.
File /scratch/gpfs/lsawade/database/C201007232315A/CMT_SIMs/CMT_rr/DATA/Par_file exists already. It will NOT be overwritten.
File /scratch/gpfs/lsawade/database/C201007232315A/CMT_SIMs/CMT_rr/DATA/CMTSOLUTION exists already. It will NOT be overwritten.
Directory /scratch/gpfs/lsawade/database/C201007232315A/CMT_SIMs/CMT_rr/OUTPUT_FILES exists already. It will NOT be overwritten.
Writing YAML path file from waveform dir /scratch/gpfs/lsawade/database/C201007232315A/CMT_SIMs/CMT_rr/OUTPUT_FILES
Writing path file /scratch/gpfs/lsawade/database/C201007232315A/CMT_SIMs/CMT_rr/CMT_rr.yml.
/scratch/gpfs/lsawade/database/C201007232315A/CMT_SIMs/CMT_tt exists already. Not overwritten.
/scratch/gpfs/lsawade/database/C201007232315A/CMT_SIMs/CMT_tt/DATA exists already. Not overwritten.
File /scratch/gpfs/lsawade/database/C201007232315A/CMT_SIMs/CMT_tt/DATA/STATIONS exists already. It will NOT be overwritten.
File /scratch/gpfs/lsawade/database/C201007232315A/CMT_SIMs/CMT_tt/DATA/Par_file exists already. It will NOT be overwritten.
File /scratch/gpfs/lsawade/database/C201007232315A/CMT_SIMs/CMT_tt/DATA/CMTSOLUTION exists already. It will NOT be overwritten.
Directory /scratch/gpfs/lsawade/database/C201007232315A/CMT_SIMs/CMT_tt/OUTPUT_FILES exists already. It will NOT be overwritten.
Writing YAML path file from waveform dir /scratch/gpfs/lsawade/database/C201007232315A/CMT_SIMs/CMT_tt/OUTPUT_FILES
Writing path file /scratch/gpfs/lsawade/database/C201007232315A/CMT_SIMs/CMT_tt/CMT_tt.yml.
/scratch/gpfs/lsawade/database/C201007232315A/CMT_SIMs/CMT_pp exists already. Not overwritten.
/scratch/gpfs/lsawade/database/C201007232315A/CMT_SIMs/CMT_pp/DATA exists already. Not overwritten.
File /scratch/gpfs/lsawade/database/C201007232315A/CMT_SIMs/CMT_pp/DATA/STATIONS exists already. It will NOT be overwritten.
File /scratch/gpfs/lsawade/database/C201007232315A/CMT_SIMs/CMT_pp/DATA/Par_file exists already. It will NOT be overwritten.
File /scratch/gpfs/lsawade/database/C201007232315A/CMT_SIMs/CMT_pp/DATA/CMTSOLUTION exists already. It will NOT be overwritten.
Directory /scratch/gpfs/lsawade/database/C201007232315A/CMT_SIMs/CMT_pp/OUTPUT_FILES exists already. It will NOT be overwritten.
Writing YAML path file from waveform dir /scratch/gpfs/lsawade/database/C201007232315A/CMT_SIMs/CMT_pp/OUTPUT_FILES
Writing path file /scratch/gpfs/lsawade/database/C201007232315A/CMT_SIMs/CMT_pp/CMT_pp.yml.
/scratch/gpfs/lsawade/database/C201007232315A/CMT_SIMs/CMT_rt exists already. Not overwritten.
/scratch/gpfs/lsawade/database/C201007232315A/CMT_SIMs/CMT_rt/DATA exists already. Not overwritten.
File /scratch/gpfs/lsawade/database/C201007232315A/CMT_SIMs/CMT_rt/DATA/STATIONS exists already. It will NOT be overwritten.
File /scratch/gpfs/lsawade/database/C201007232315A/CMT_SIMs/CMT_rt/DATA/Par_file exists already. It will NOT be overwritten.
File /scratch/gpfs/lsawade/database/C201007232315A/CMT_SIMs/CMT_rt/DATA/CMTSOLUTION exists already. It will NOT be overwritten.
Directory /scratch/gpfs/lsawade/database/C201007232315A/CMT_SIMs/CMT_rt/OUTPUT_FILES exists already. It will NOT be overwritten.
Writing YAML path file from waveform dir /scratch/gpfs/lsawade/database/C201007232315A/CMT_SIMs/CMT_rt/OUTPUT_FILES
Writing path file /scratch/gpfs/lsawade/database/C201007232315A/CMT_SIMs/CMT_rt/CMT_rt.yml.
/scratch/gpfs/lsawade/database/C201007232315A/CMT_SIMs/CMT_rp exists already. Not overwritten.
/scratch/gpfs/lsawade/database/C201007232315A/CMT_SIMs/CMT_rp/DATA exists already. Not overwritten.
File /scratch/gpfs/lsawade/database/C201007232315A/CMT_SIMs/CMT_rp/DATA/STATIONS exists already. It will NOT be overwritten.
File /scratch/gpfs/lsawade/database/C201007232315A/CMT_SIMs/CMT_rp/DATA/Par_file exists already. It will NOT be overwritten.
File /scratch/gpfs/lsawade/database/C201007232315A/CMT_SIMs/CMT_rp/DATA/CMTSOLUTION exists already. It will NOT be overwritten.
Directory /scratch/gpfs/lsawade/database/C201007232315A/CMT_SIMs/CMT_rp/OUTPUT_FILES exists already. It will NOT be overwritten.
Writing YAML path file from waveform dir /scratch/gpfs/lsawade/database/C201007232315A/CMT_SIMs/CMT_rp/OUTPUT_FILES
Writing path file /scratch/gpfs/lsawade/database/C201007232315A/CMT_SIMs/CMT_rp/CMT_rp.yml.
/scratch/gpfs/lsawade/database/C201007232315A/CMT_SIMs/CMT_tp exists already. Not overwritten.
/scratch/gpfs/lsawade/database/C201007232315A/CMT_SIMs/CMT_tp/DATA exists already. Not overwritten.
File /scratch/gpfs/lsawade/database/C201007232315A/CMT_SIMs/CMT_tp/DATA/STATIONS exists already. It will NOT be overwritten.
File /scratch/gpfs/lsawade/database/C201007232315A/CMT_SIMs/CMT_tp/DATA/Par_file exists already. It will NOT be overwritten.
File /scratch/gpfs/lsawade/database/C201007232315A/CMT_SIMs/CMT_tp/DATA/CMTSOLUTION exists already. It will NOT be overwritten.
Directory /scratch/gpfs/lsawade/database/C201007232315A/CMT_SIMs/CMT_tp/OUTPUT_FILES exists already. It will NOT be overwritten.
Writing YAML path file from waveform dir /scratch/gpfs/lsawade/database/C201007232315A/CMT_SIMs/CMT_tp/OUTPUT_FILES
Writing path file /scratch/gpfs/lsawade/database/C201007232315A/CMT_SIMs/CMT_tp/CMT_tp.yml.
/scratch/gpfs/lsawade/database/C201007232315A/CMT_SIMs/CMT_depth exists already. Not overwritten.
/scratch/gpfs/lsawade/database/C201007232315A/CMT_SIMs/CMT_depth/DATA exists already. Not overwritten.
File /scratch/gpfs/lsawade/database/C201007232315A/CMT_SIMs/CMT_depth/DATA/STATIONS exists already. It will NOT be overwritten.
File /scratch/gpfs/lsawade/database/C201007232315A/CMT_SIMs/CMT_depth/DATA/Par_file exists already. It will NOT be overwritten.
File /scratch/gpfs/lsawade/database/C201007232315A/CMT_SIMs/CMT_depth/DATA/CMTSOLUTION exists already. It will NOT be overwritten.
Directory /scratch/gpfs/lsawade/database/C201007232315A/CMT_SIMs/CMT_depth/OUTPUT_FILES exists already. It will NOT be overwritten.
Writing YAML path file from waveform dir /scratch/gpfs/lsawade/database/C201007232315A/CMT_SIMs/CMT_depth/OUTPUT_FILES
Writing path file /scratch/gpfs/lsawade/database/C201007232315A/CMT_SIMs/CMT_depth/CMT_depth.yml.
/scratch/gpfs/lsawade/database/C201007232315A/CMT_SIMs/CMT_lat exists already. Not overwritten.
/scratch/gpfs/lsawade/database/C201007232315A/CMT_SIMs/CMT_lat/DATA exists already. Not overwritten.
File /scratch/gpfs/lsawade/database/C201007232315A/CMT_SIMs/CMT_lat/DATA/STATIONS exists already. It will NOT be overwritten.
File /scratch/gpfs/lsawade/database/C201007232315A/CMT_SIMs/CMT_lat/DATA/Par_file exists already. It will NOT be overwritten.
File /scratch/gpfs/lsawade/database/C201007232315A/CMT_SIMs/CMT_lat/DATA/CMTSOLUTION exists already. It will NOT be overwritten.
Directory /scratch/gpfs/lsawade/database/C201007232315A/CMT_SIMs/CMT_lat/OUTPUT_FILES exists already. It will NOT be overwritten.
Writing YAML path file from waveform dir /scratch/gpfs/lsawade/database/C201007232315A/CMT_SIMs/CMT_lat/OUTPUT_FILES
Writing path file /scratch/gpfs/lsawade/database/C201007232315A/CMT_SIMs/CMT_lat/CMT_lat.yml.
/scratch/gpfs/lsawade/database/C201007232315A/CMT_SIMs/CMT_lon exists already. Not overwritten.
/scratch/gpfs/lsawade/database/C201007232315A/CMT_SIMs/CMT_lon/DATA exists already. Not overwritten.
File /scratch/gpfs/lsawade/database/C201007232315A/CMT_SIMs/CMT_lon/DATA/STATIONS exists already. It will NOT be overwritten.
File /scratch/gpfs/lsawade/database/C201007232315A/CMT_SIMs/CMT_lon/DATA/Par_file exists already. It will NOT be overwritten.
File /scratch/gpfs/lsawade/database/C201007232315A/CMT_SIMs/CMT_lon/DATA/CMTSOLUTION exists already. It will NOT be overwritten.
Directory /scratch/gpfs/lsawade/database/C201007232315A/CMT_SIMs/CMT_lon/OUTPUT_FILES exists already. It will NOT be overwritten.
Writing YAML path file from waveform dir /scratch/gpfs/lsawade/database/C201007232315A/CMT_SIMs/CMT_lon/OUTPUT_FILES
Writing path file /scratch/gpfs/lsawade/database/C201007232315A/CMT_SIMs/CMT_lon/CMT_lon.yml.
Done.

Earthquake Parameters
--------------------------------------------------
Earthquake ID: 201007232315A
Origin Time: 2010-07-23T23:15:15.710000Z
Origin Latitude: 6.83
Origin Longitude: 123.48

Download Parameters:
--------------------------------------------------
Starttime: 2010-07-23T23:14:15.710000Z
Endtime: 2010-07-24T01:20:55.710000Z
Duration [s]: 7600
Channels: ['BHN', 'BHE', 'BHZ']
Locations: ['00']

Saving Parameters:
--------------------------------------------------
Output Directory: /tigress/lsawade/database/C201007232315A

Reading data selection from list file '/tigress/lsawade/database/C201007232315A/request.txt'
Received 7.8 KB of metadata in 0.5 seconds (14.4 KB/s)
Processed metadata for 276 channel epochs in 0.6 seconds
Received 71.6 MB of time series data in 51.7 seconds (1.4 MB/s) - written to /tigress/lsawade/database/C201007232315A/seismograms/obs/201007232315A.mseed
Received 228.0 KB of StationXML in 3.9 seconds (58.2 KB/s)
DONE at 2019-12-04 00:24:43

STATIONS FILE WRITTEN.

Submitted batch job 4069413
